lig_ejm_50
     RDKit          3D

 33 34  0  0  1  0  0  0  0  0999 V2000
   -4.7566   -2.8250  -16.5089 H   0  0  0  0  0  0  0  0  0  0  0  0
   -5.3502   -3.6877  -16.2344 C   0  0  0  0  0  0  0  0  0  0  0  0
   -4.7646   -4.9663  -16.2140 C   0  0  0  0  0  0  0  0  0  0  0  0
   -5.5301   -6.0920  -15.8502 C   0  0  0  0  0  0  0  0  0  0  0  0
   -6.8933   -5.9430  -15.4829 C   0  0  0  0  0  0  0  0  0  0  0  0
   -7.4837   -4.6542  -15.5274 C   0  0  0  0  0  0  0  0  0  0  0  0
   -6.7098   -3.5379  -15.9038 C   0  0  0  0  0  0  0  0  0  0  0  0
   -7.1624   -2.5591  -15.9461 H   0  0  0  0  0  0  0  0  0  0  0  0
   -9.1610   -4.4127  -15.1682 Cl  0  0  0  0  0  0  0  0  0  0  0  0
   -7.7071   -7.1255  -15.0416 C   0  0  0  0  0  0  0  0  0  0  0  0
   -8.1268   -7.1889  -13.8858 O   0  0  0  0  0  0  0  0  0  0  0  0
   -7.8978   -8.0465  -16.0039 N   0  0  0  0  0  0  0  0  0  0  0  0
   -7.4263   -7.8549  -16.8759 H   0  0  0  0  0  0  0  0  0  0  0  0
   -8.7165   -9.2065  -16.0059 C   0  0  0  0  0  0  0  0  0  0  0  0
   -9.5744   -9.5863  -14.9526 C   0  0  0  0  0  0  0  0  0  0  0  0
  -10.3796  -10.7215  -15.1333 C   0  0  0  0  0  0  0  0  0  0  0  0
  -10.3620  -11.4824  -16.2494 N   0  0  0  0  0  0  0  0  0  0  0  0
   -9.5317  -11.1460  -17.2633 C   0  0  0  0  0  0  0  0  0  0  0  0
   -8.7042   -9.9984  -17.1710 C   0  0  0  0  0  0  0  0  0  0  0  0
   -8.0761   -9.6893  -17.9915 H   0  0  0  0  0  0  0  0  0  0  0  0
   -9.5620  -11.9430  -18.4412 N   0  0  0  0  0  0  0  0  0  0  0  0
  -10.3754  -12.5429  -18.5143 H   0  0  0  0  0  0  0  0  0  0  0  0
   -8.6769  -12.0520  -19.4498 C   0  0  0  0  0  0  0  0  0  0  0  0
   -7.6135  -11.4339  -19.5265 O   0  0  0  0  0  0  0  0  0  0  0  0
   -9.0608  -13.0306  -20.5667 C   0  0  0  0  0  0  0  0  0  0  0  0
   -9.3324  -12.4679  -21.4599 H   0  0  0  0  0  0  0  0  0  0  0  0
   -9.9289  -13.6319  -20.2906 H   0  0  0  0  0  0  0  0  0  0  0  0
   -7.9832  -13.8971  -20.8712 O   0  0  0  0  0  0  0  0  0  0  0  0
   -8.2687  -14.4667  -21.5693 H   0  0  0  0  0  0  0  0  0  0  0  0
  -11.0691  -11.0270  -14.3602 H   0  0  0  0  0  0  0  0  0  0  0  0
   -9.6702   -9.0244  -14.0359 H   0  0  0  0  0  0  0  0  0  0  0  0
   -4.7613   -7.6378  -15.8681 Cl  0  0  0  0  0  0  0  0  0  0  0  0
   -3.7205   -5.0811  -16.4718 H   0  0  0  0  0  0  0  0  0  0  0  0
  1  2  1  0
  2  7  2  0
  2  3  1  0
  3  4  2  0
  3 33  1  0
  4  5  1  0
  4 32  1  0
  5  6  2  0
  5 10  1  0
  6  7  1  0
  6  9  1  0
  7  8  1  0
 10 11  2  0
 10 12  1  0
 12 13  1  0
 12 14  1  0
 14 19  1  0
 14 15  2  0
 15 16  1  0
 15 31  1  0
 16 17  2  0
 16 30  1  0
 17 18  1  0
 18 19  2  0
 18 21  1  0
 19 20  1  0
 21 22  1  0
 21 23  1  0
 23 24  2  0
 23 25  1  0
 25 26  1  0
 25 27  1  0
 25 28  1  0
 28 29  1  0
M  END
>  <s_m_source_file>  (1) 
ligprep_tyk2.smi

>  <i_m_source_file_index>  (1) 
10

>  <i_lp_mmshare_version>  (1) 
53161

>  <i_f3d_flags>  (1) 
0

>  <s_epik_input>  (1) 
Q2xjMVtjSF1bY0hdW2NIXWMoQ2wpYzFDKD1PKVtOSF1jMltjSF1bY0hdbmMoW2NIXTIpW05IXUMoPU8pW0NIMl1bT0hd

>  <s_epik_cmdline>  (1) 
J2VwaWtfcHl0aG9uJywgJy1waHQnLCAnMC4wJywgJy1waCcsICc3LjQnLCAnLXRuJywgJzgnLCAnLW1hJywgJzUwMCcsICctaW1hZScsICc8aW5maWxlLm1hZT4nLCAnLW9tYWUnLCAnPG91dGZpbGUubWFlPic=

>  <r_lp_tautomer_probability>  (1) 
1

>  <r_epik_Ionization_Penalty>  (1) 
  0.0041

>  <r_epik_Ionization_Penalty_Charging>  (1) 
  0.0000

>  <r_epik_Ionization_Penalty_Neutral>  (1) 
  0.0041

>  <r_epik_State_Penalty>  (1) 
 -0.0000

>  <r_epik_Charging_Adjusted_Penalty>  (1) 
0

>  <i_epik_Tot_Q>  (1) 
0

>  <i_epik_Tot_abs_Q>  (1) 
0

>  <s_lp_Force_Field>  (1) 
S-OPLS

>  <r_lp_Energy>  (1) 
35.9809

>  <b_lp_Chiralities_Consistent>  (1) 
1

>  <s_lp_Variant>  (1) 
lig_ejm_50-1

>  <s_i_glide_gridfile>  (1) 
glide-grid_TYK2-4GIH

>  <i_i_glide_lignum>  (1) 
10

>  <i_i_glide_rotatable_bonds>  (1) 
7

>  <r_i_docking_score>  (1) 
-9.52147740885643

>  <r_i_glide_ligand_efficiency>  (1) 
-0.432794427675292

>  <r_i_glide_ligand_efficiency_sa>  (1) 
-1.21270700718515

>  <r_i_glide_ligand_efficiency_ln>  (1) 
-2.32739638305154

>  <r_i_glide_gscore>  (1) 
-9.52147740885643

>  <r_i_glide_lipo>  (1) 
-3.51225061750275

>  <r_i_glide_hbond>  (1) 
-0.553539298675415

>  <r_i_glide_metal>  (1) 
-0

>  <r_i_glide_rewards>  (1) 
-2.34130303424368

>  <r_i_glide_evdw>  (1) 
-49.0786361694336

>  <r_i_glide_ecoul>  (1) 
-9.74835586547852

>  <r_i_glide_erotb>  (1) 
0.80180072985887

>  <r_i_glide_esite>  (1) 
0

>  <r_i_glide_emodel>  (1) 
-91.0750533852305

>  <r_i_glide_energy>  (1) 
-58.8269920349121

>  <r_i_glide_einternal>  (1) 
0.0734923481941223

>  <i_i_glide_confnum>  (1) 
11

>  <i_i_glide_posenum>  (1) 
12

>  <r_i_glide_eff_state_penalty>  (1) 
-0

>  <r_i_glide_rmsd>  (1) 
0.0567732838343503

>  <s_glide_core_constrain_type>  (1) 
snapped_core_restrain

$$$$
