lig_ejm_45
     RDKit          3D

 39 41  0  0  1  0  0  0  0  0999 V2000
   -4.7653   -2.7760  -16.4617 H   0  0  0  0  0  0  0  0  0  0  0  0
   -5.3593   -3.6410  -16.2030 C   0  0  0  0  0  0  0  0  0  0  0  0
   -4.7748   -4.9180  -16.1991 C   0  0  0  0  0  0  0  0  0  0  0  0
   -5.5374   -6.0484  -15.8455 C   0  0  0  0  0  0  0  0  0  0  0  0
   -6.9029   -5.9091  -15.4832 C   0  0  0  0  0  0  0  0  0  0  0  0
   -7.4906   -4.6189  -15.5147 C   0  0  0  0  0  0  0  0  0  0  0  0
   -6.7175   -3.4985  -15.8728 C   0  0  0  0  0  0  0  0  0  0  0  0
   -7.1710   -2.5202  -15.8954 H   0  0  0  0  0  0  0  0  0  0  0  0
   -9.1625   -4.3708  -15.1484 Cl  0  0  0  0  0  0  0  0  0  0  0  0
   -7.7142   -7.0985  -15.0517 C   0  0  0  0  0  0  0  0  0  0  0  0
   -8.1252   -7.1792  -13.8939 O   0  0  0  0  0  0  0  0  0  0  0  0
   -7.9143   -8.0102  -16.0203 N   0  0  0  0  0  0  0  0  0  0  0  0
   -7.4505   -7.8164  -16.8957 H   0  0  0  0  0  0  0  0  0  0  0  0
   -8.7301   -9.1752  -16.0199 C   0  0  0  0  0  0  0  0  0  0  0  0
   -9.5662   -9.5758  -14.9563 C   0  0  0  0  0  0  0  0  0  0  0  0
  -10.3667  -10.7163  -15.1327 C   0  0  0  0  0  0  0  0  0  0  0  0
  -10.3622  -11.4650  -16.2560 N   0  0  0  0  0  0  0  0  0  0  0  0
   -9.5398  -11.1166  -17.2754 C   0  0  0  0  0  0  0  0  0  0  0  0
   -8.7272   -9.9574  -17.1911 C   0  0  0  0  0  0  0  0  0  0  0  0
   -8.1074   -9.6434  -18.0179 H   0  0  0  0  0  0  0  0  0  0  0  0
   -9.5624  -11.9160  -18.4518 N   0  0  0  0  0  0  0  0  0  0  0  0
  -10.4093  -12.4586  -18.5637 H   0  0  0  0  0  0  0  0  0  0  0  0
   -8.6555  -12.0363  -19.4383 C   0  0  0  0  0  0  0  0  0  0  0  0
   -7.5594  -11.4760  -19.4513 O   0  0  0  0  0  0  0  0  0  0  0  0
   -9.0625  -12.9425  -20.6104 C   0  0  0  0  0  0  0  0  0  0  0  0
   -9.7771  -12.3994  -21.2296 H   0  0  0  0  0  0  0  0  0  0  0  0
   -9.5820  -13.8314  -20.2521 H   0  0  0  0  0  0  0  0  0  0  0  0
   -7.8922  -13.3639  -21.4848 C   0  0  0  0  0  0  0  0  0  0  0  0
   -7.0388  -14.5520  -21.1047 C   0  0  0  0  0  0  0  0  0  0  0  0
   -7.9413  -14.6258  -22.3142 C   0  0  0  0  0  0  0  0  0  0  0  0
   -7.4723  -14.5952  -23.2971 H   0  0  0  0  0  0  0  0  0  0  0  0
   -8.8440  -15.2291  -22.2526 H   0  0  0  0  0  0  0  0  0  0  0  0
   -7.3325  -15.1164  -20.2240 H   0  0  0  0  0  0  0  0  0  0  0  0
   -5.9664  -14.4567  -21.2681 H   0  0  0  0  0  0  0  0  0  0  0  0
   -7.3673  -12.5289  -21.9445 H   0  0  0  0  0  0  0  0  0  0  0  0
  -11.0351  -11.0381  -14.3489 H   0  0  0  0  0  0  0  0  0  0  0  0
   -9.6382   -9.0281  -14.0304 H   0  0  0  0  0  0  0  0  0  0  0  0
   -4.7515   -7.5847  -15.8530 Cl  0  0  0  0  0  0  0  0  0  0  0  0
   -3.7310   -5.0243  -16.4574 H   0  0  0  0  0  0  0  0  0  0  0  0
  1  2  1  0
  2  7  2  0
  2  3  1  0
  3  4  2  0
  3 39  1  0
  4  5  1  0
  4 38  1  0
  5  6  2  0
  5 10  1  0
  6  7  1  0
  6  9  1  0
  7  8  1  0
 10 11  2  0
 10 12  1  0
 12 13  1  0
 12 14  1  0
 14 19  1  0
 14 15  2  0
 15 16  1  0
 15 37  1  0
 16 17  2  0
 16 36  1  0
 17 18  1  0
 18 19  2  0
 18 21  1  0
 19 20  1  0
 21 22  1  0
 21 23  1  0
 23 24  2  0
 23 25  1  0
 25 26  1  0
 25 27  1  0
 25 28  1  0
 28 30  1  0
 28 29  1  0
 28 35  1  0
 29 30  1  0
 29 33  1  0
 29 34  1  0
 30 31  1  0
 30 32  1  0
M  END
>  <s_m_source_file>  (1) 
ligprep_tyk2.smi

>  <i_m_source_file_index>  (1) 
5

>  <i_lp_mmshare_version>  (1) 
53161

>  <i_f3d_flags>  (1) 
0

>  <s_epik_input>  (1) 
Q2xjMVtjSF1bY0hdW2NIXWMoQ2wpYzFDKD1PKVtOSF1jMltjSF1bY0hdbmMoW2NIXTIpW05IXUMoPU8pW0NIMl1bQ0hdM1tDSDJdW0NIMl0z

>  <s_epik_cmdline>  (1) 
J2VwaWtfcHl0aG9uJywgJy1waHQnLCAnMC4wJywgJy1waCcsICc3LjQnLCAnLXRuJywgJzgnLCAnLW1hJywgJzUwMCcsICctaW1hZScsICc8aW5maWxlLm1hZT4nLCAnLW9tYWUnLCAnPG91dGZpbGUubWFlPic=

>  <r_lp_tautomer_probability>  (1) 
1

>  <r_epik_Ionization_Penalty>  (1) 
  0.0034

>  <r_epik_Ionization_Penalty_Charging>  (1) 
  0.0000

>  <r_epik_Ionization_Penalty_Neutral>  (1) 
  0.0034

>  <r_epik_State_Penalty>  (1) 
 -0.0000

>  <r_epik_Charging_Adjusted_Penalty>  (1) 
0

>  <i_epik_Tot_Q>  (1) 
0

>  <i_epik_Tot_abs_Q>  (1) 
0

>  <s_lp_Force_Field>  (1) 
S-OPLS

>  <r_lp_Energy>  (1) 
29.5712

>  <b_lp_Chiralities_Consistent>  (1) 
1

>  <s_lp_Variant>  (1) 
lig_ejm_45-1

>  <s_i_glide_gridfile>  (1) 
glide-grid_TYK2-4GIH

>  <i_i_glide_lignum>  (1) 
5

>  <i_i_glide_rotatable_bonds>  (1) 
7

>  <r_i_docking_score>  (1) 
-9.48758772992379

>  <r_i_glide_ligand_efficiency>  (1) 
-0.395316155413491

>  <r_i_glide_ligand_efficiency_sa>  (1) 
-1.1402891093534

>  <r_i_glide_ligand_efficiency_ln>  (1) 
-2.27081510080344

>  <r_i_glide_gscore>  (1) 
-9.48758772992379

>  <r_i_glide_lipo>  (1) 
-3.51168932646743

>  <r_i_glide_hbond>  (1) 
-0.564433849841971

>  <r_i_glide_metal>  (1) 
-0

>  <r_i_glide_rewards>  (1) 
-2.34192253721442

>  <r_i_glide_evdw>  (1) 
-50.7466583251953

>  <r_i_glide_ecoul>  (1) 
-8.2814474105835

>  <r_i_glide_erotb>  (1) 
0.710008011447321

>  <r_i_glide_esite>  (1) 
0

>  <r_i_glide_emodel>  (1) 
-90.4558993852191

>  <r_i_glide_energy>  (1) 
-59.0281057357788

>  <r_i_glide_einternal>  (1) 
0.525283455848694

>  <i_i_glide_confnum>  (1) 
4

>  <i_i_glide_posenum>  (1) 
11

>  <r_i_glide_eff_state_penalty>  (1) 
-0

>  <r_i_glide_rmsd>  (1) 
0.0846505747959884

>  <s_glide_core_constrain_type>  (1) 
snapped_core_restrain

$$$$
