lig_jmc28
  xed2sdf           3D
 
 39 41  0  0  1  0  0  0  0  0999 V2000
   -5.3411   -3.6508  -16.1890 C   0  0  0  0  0  0  0  0  0  0  0  0
   -4.7685   -4.9310  -16.1776 C   0  0  0  0  0  0  0  0  0  0  0  0
   -5.5350   -6.0559  -15.8238 C   0  0  0  0  0  0  0  0  0  0  0  0
   -6.8979   -5.9074  -15.4622 C   0  0  0  0  0  0  0  0  0  0  0  0
   -7.4809   -4.6158  -15.5046 C   0  0  0  0  0  0  0  0  0  0  0  0
   -6.6987   -3.5009  -15.8628 C   0  0  0  0  0  0  0  0  0  0  0  0
   -9.1567   -4.3628  -15.1552 Cl  0  0  0  0  0  0  0  0  0  0  0  0
   -7.7130   -7.0932  -15.0298 C   0  0  0  0  0  0  0  0  0  0  0  0
   -8.1296   -7.1733  -13.8741 O   0  0  0  0  0  0  0  0  0  0  0  0
   -7.9193   -8.0014  -16.0004 N   0  0  0  0  0  0  0  0  0  0  0  0
   -8.7347   -9.1633  -16.0057 C   0  0  0  0  0  0  0  0  0  0  0  0
   -9.5725   -9.5704  -14.9464 C   0  0  0  0  0  0  0  0  0  0  0  0
  -10.3637  -10.7173  -15.1280 C   0  0  0  0  0  0  0  0  0  0  0  0
  -10.3446  -11.4660  -16.2511 N   0  0  0  0  0  0  0  0  0  0  0  0
   -9.5361  -11.1013  -17.2725 C   0  0  0  0  0  0  0  0  0  0  0  0
   -8.7315   -9.9366  -17.1810 C   0  0  0  0  0  0  0  0  0  0  0  0
   -9.5526  -11.9083  -18.4440 N   0  0  0  0  0  0  0  0  0  0  0  0
   -8.6680  -11.9843  -19.4572 C   0  0  0  0  0  0  0  0  0  0  0  0
   -7.6505  -11.2977  -19.5471 O   0  0  0  0  0  0  0  0  0  0  0  0
   -9.0548  -12.9922  -20.4979 C   0  0  0  0  0  0  0  0  0  0  0  0
   -7.9992  -13.8069  -21.2467 C   0  0  0  0  0  0  0  0  0  0  0  0
   -8.7187  -12.6841  -21.9436 C   0  0  0  0  0  0  0  0  0  0  0  0
   -6.5008  -13.7328  -21.0555 C   0  0  0  0  0  0  0  0  0  0  0  0
   -4.7605   -7.5996  -15.8546 Cl  0  0  0  0  0  0  0  0  0  0  0  0
   -4.7391   -2.7886  -16.4408 H   0  0  0  0  0  0  0  0  0  0  0  0
   -7.1480   -2.5212  -15.8957 H   0  0  0  0  0  0  0  0  0  0  0  0
   -7.4494   -7.8110  -16.8727 H   0  0  0  0  0  0  0  0  0  0  0  0
   -8.1240   -9.6027  -18.0068 H   0  0  0  0  0  0  0  0  0  0  0  0
  -10.3394  -12.5441  -18.5072 H   0  0  0  0  0  0  0  0  0  0  0  0
   -8.1524  -11.7785  -22.1629 H   0  0  0  0  0  0  0  0  0  0  0  0
   -9.4743  -12.9398  -22.6838 H   0  0  0  0  0  0  0  0  0  0  0  0
   -8.3294  -14.8103  -21.5041 H   0  0  0  0  0  0  0  0  0  0  0  0
   -6.1494  -12.7090  -20.9351 H   0  0  0  0  0  0  0  0  0  0  0  0
   -6.0011  -14.1541  -21.9261 H   0  0  0  0  0  0  0  0  0  0  0  0
   -6.2161  -14.3167  -20.1891 H   0  0  0  0  0  0  0  0  0  0  0  0
  -10.0071  -13.4969  -20.3282 H   0  0  0  0  0  0  0  0  0  0  0  0
  -11.0189  -11.0555  -14.3372 H   0  0  0  0  0  0  0  0  0  0  0  0
   -9.6386   -9.0285  -14.0148 H   0  0  0  0  0  0  0  0  0  0  0  0
   -3.7253   -5.0535  -16.4278 H   0  0  0  0  0  0  0  0  0  0  0  0
  1  2  2  0
  1  6  1  0
  2  3  1  0
  3  4  2  0
  3 24  1  0
  4  5  1  0
  4  8  1  0
  5  6  2  0
  5  7  1  0
  8  9  2  0
  8 10  1  0
 10 11  1  0
 11 12  2  0
 11 16  1  0
 12 13  1  0
 13 14  2  0
 14 15  1  0
 15 16  2  0
 15 17  1  0
 17 18  1  0
 18 19  2  0
 18 20  1  0
 20 21  1  0
 20 22  1  0
 21 22  1  0
 21 23  1  0
  2 39  1  0
  6 26  1  0
 10 27  1  0
 12 38  1  0
 13 37  1  0
 16 28  1  0
 17 29  1  0
 20 36  1  0
 21 32  1  0
 22 30  1  0
 22 31  1  0
 23 33  1  0
 23 34  1  0
 23 35  1  0
 25  1  1  0
M  END
>  <s_m_source_file>
ligprep_tyk2.smi

>  <i_m_source_file_index>
15

>  <i_lp_mmshare_version>
53161

>  <i_f3d_flags>
0

>  <s_epik_input>
Q2xjMVtjSF1bY0hdW2NIXWMoQ2wpYzFDKD1PKVtOSF1jMltjSF1bY0hdbmMoW2NIXTIpW05IXUMoPU8pW0NAQEhdM1tDQEBIXShbQ0gyXTMpW0NIM10=

>  <s_epik_cmdline>
J2VwaWtfcHl0aG9uJywgJy1waHQnLCAnMC4wJywgJy1waCcsICc3LjQnLCAnLXRuJywgJzgnLCAnLW1hJywgJzUwMCcsICctaW1hZScsICc8aW5maWxlLm1hZT4nLCAnLW9tYWUnLCAnPG91dGZpbGUubWFlPic=

>  <r_lp_tautomer_probability>
1

>  <r_epik_Ionization_Penalty>
  0.0034

>  <r_epik_Ionization_Penalty_Charging>
  0.0000

>  <r_epik_Ionization_Penalty_Neutral>
  0.0034

>  <r_epik_State_Penalty>
 -0.0000

>  <r_epik_Charging_Adjusted_Penalty>
0

>  <i_epik_Tot_Q>
0

>  <i_epik_Tot_abs_Q>
0

>  <s_lp_Force_Field>
S-OPLS

>  <r_lp_Energy>
47.3336

>  <b_lp_Chiralities_Consistent>
1

>  <s_lp_Variant>
lig_jmc_28-1

>  <s_i_glide_gridfile>
glide-grid_TYK2-4GIH

>  <i_i_glide_lignum>
15

>  <i_i_glide_rotatable_bonds>
6

>  <r_i_docking_score>
-9.46170487655339

>  <r_i_glide_ligand_efficiency>
-0.394237703189725

>  <r_i_glide_ligand_efficiency_sa>
-1.13717831484405

>  <r_i_glide_ligand_efficiency_ln>
-2.26462014630516

>  <r_i_glide_gscore>
-9.46170487655339

>  <r_i_glide_lipo>
-3.56060944859487

>  <r_i_glide_hbond>
-0.595290031095215

>  <r_i_glide_metal>
-0

>  <r_i_glide_rewards>
-2.0445715853034

>  <r_i_glide_evdw>
-51.7238655090332

>  <r_i_glide_ecoul>
-8.55745887756348

>  <r_i_glide_erotb>
0.608578295526275

>  <r_i_glide_esite>
0

>  <r_i_glide_emodel>
-95.8025763049769

>  <r_i_glide_energy>
-60.2813243865967

>  <r_i_glide_einternal>
2.81075955399501e-07

>  <i_i_glide_confnum>
1

>  <i_i_glide_posenum>
1

>  <r_i_glide_eff_state_penalty>
-0

>  <r_i_glide_rmsd>
0.0852310574338579

>  <s_glide_core_constrain_type>
snapped_core_restrain

$$$$
