lig_ejm_47
     RDKit          3D

 39 41  0  0  1  0  0  0  0  0999 V2000
   -4.7643   -2.7834  -16.4587 H   0  0  0  0  0  0  0  0  0  0  0  0
   -5.3552   -3.6498  -16.1974 C   0  0  0  0  0  0  0  0  0  0  0  0
   -6.7124   -3.5027  -15.8663 C   0  0  0  0  0  0  0  0  0  0  0  0
   -7.4893   -4.6185  -15.5050 C   0  0  0  0  0  0  0  0  0  0  0  0
   -6.9074   -5.9119  -15.4790 C   0  0  0  0  0  0  0  0  0  0  0  0
   -5.5421   -6.0562  -15.8413 C   0  0  0  0  0  0  0  0  0  0  0  0
   -4.7732   -4.9286  -16.1887 C   0  0  0  0  0  0  0  0  0  0  0  0
   -3.7316   -5.0407  -16.4512 H   0  0  0  0  0  0  0  0  0  0  0  0
   -4.7624   -7.5959  -15.8531 Cl  0  0  0  0  0  0  0  0  0  0  0  0
   -7.7248   -7.0987  -15.0524 C   0  0  0  0  0  0  0  0  0  0  0  0
   -8.1332   -7.1859  -13.8948 O   0  0  0  0  0  0  0  0  0  0  0  0
   -7.9361   -7.9984  -16.0292 N   0  0  0  0  0  0  0  0  0  0  0  0
   -7.4760   -7.7960  -16.9040 H   0  0  0  0  0  0  0  0  0  0  0  0
   -8.7528   -9.1577  -16.0420 C   0  0  0  0  0  0  0  0  0  0  0  0
   -9.5813   -9.5734  -14.9790 C   0  0  0  0  0  0  0  0  0  0  0  0
  -10.3744  -10.7163  -15.1640 C   0  0  0  0  0  0  0  0  0  0  0  0
  -10.3618  -11.4596  -16.2922 N   0  0  0  0  0  0  0  0  0  0  0  0
   -9.5555  -11.0907  -17.3151 C   0  0  0  0  0  0  0  0  0  0  0  0
   -8.7581   -9.9220  -17.2226 C   0  0  0  0  0  0  0  0  0  0  0  0
   -8.1469   -9.5902  -18.0480 H   0  0  0  0  0  0  0  0  0  0  0  0
   -9.5627  -11.8828  -18.4971 N   0  0  0  0  0  0  0  0  0  0  0  0
  -10.3897  -12.4543  -18.6082 H   0  0  0  0  0  0  0  0  0  0  0  0
   -8.6209  -12.0124  -19.4529 C   0  0  0  0  0  0  0  0  0  0  0  0
   -7.5620  -11.3849  -19.4767 O   0  0  0  0  0  0  0  0  0  0  0  0
   -8.9140  -13.0316  -20.5664 C   0  0  0  0  0  0  0  0  0  0  0  0
   -8.6629  -12.5253  -22.0018 C   0  0  0  0  0  0  0  0  0  0  0  0
   -8.0064  -13.8706  -22.3183 C   0  0  0  0  0  0  0  0  0  0  0  0
   -7.7574  -14.0240  -20.8178 C   0  0  0  0  0  0  0  0  0  0  0  0
   -7.9255  -15.0360  -20.4505 H   0  0  0  0  0  0  0  0  0  0  0  0
   -6.7726  -13.6596  -20.5171 H   0  0  0  0  0  0  0  0  0  0  0  0
   -7.1077  -13.8151  -22.9328 H   0  0  0  0  0  0  0  0  0  0  0  0
   -8.7188  -14.6002  -22.7084 H   0  0  0  0  0  0  0  0  0  0  0  0
   -7.9629  -11.6891  -22.0777 H   0  0  0  0  0  0  0  0  0  0  0  0
   -9.5629  -12.3317  -22.5815 H   0  0  0  0  0  0  0  0  0  0  0  0
   -9.8772  -13.5353  -20.4673 H   0  0  0  0  0  0  0  0  0  0  0  0
  -11.0374  -11.0543  -14.3794 H   0  0  0  0  0  0  0  0  0  0  0  0
   -9.6520   -9.0342  -14.0480 H   0  0  0  0  0  0  0  0  0  0  0  0
   -9.1624   -4.3637  -15.1457 Cl  0  0  0  0  0  0  0  0  0  0  0  0
   -7.1620   -2.5228  -15.8783 H   0  0  0  0  0  0  0  0  0  0  0  0
  1  2  1  0
  2  7  2  0
  2  3  1  0
  3  4  2  0
  3 39  1  0
  4  5  1  0
  4 38  1  0
  5  6  2  0
  5 10  1  0
  6  7  1  0
  6  9  1  0
  7  8  1  0
 10 11  2  0
 10 12  1  0
 12 13  1  0
 12 14  1  0
 14 19  1  0
 14 15  2  0
 15 16  1  0
 15 37  1  0
 16 17  2  0
 16 36  1  0
 17 18  1  0
 18 19  2  0
 18 21  1  0
 19 20  1  0
 21 22  1  0
 21 23  1  0
 23 24  2  0
 23 25  1  0
 25 28  1  0
 25 26  1  0
 25 35  1  0
 26 27  1  0
 26 33  1  0
 26 34  1  0
 27 28  1  0
 27 31  1  0
 27 32  1  0
 28 29  1  0
 28 30  1  0
M  END
>  <s_m_source_file>  (1) 
ligprep_tyk2.smi

>  <i_m_source_file_index>  (1) 
7

>  <i_lp_mmshare_version>  (1) 
53161

>  <i_f3d_flags>  (1) 
0

>  <s_epik_input>  (1) 
Q2xjMVtjSF1bY0hdW2NIXWMoQ2wpYzFDKD1PKVtOSF1jMltjSF1bY0hdbmMoW2NIXTIpW05IXUMoPU8pW0NIXTNbQ0gyXVtDSDJdW0NIMl0z

>  <s_epik_cmdline>  (1) 
J2VwaWtfcHl0aG9uJywgJy1waHQnLCAnMC4wJywgJy1waCcsICc3LjQnLCAnLXRuJywgJzgnLCAnLW1hJywgJzUwMCcsICctaW1hZScsICc8aW5maWxlLm1hZT4nLCAnLW9tYWUnLCAnPG91dGZpbGUubWFlPic=

>  <r_lp_tautomer_probability>  (1) 
1

>  <r_epik_Ionization_Penalty>  (1) 
  0.0034

>  <r_epik_Ionization_Penalty_Charging>  (1) 
  0.0000

>  <r_epik_Ionization_Penalty_Neutral>  (1) 
  0.0034

>  <r_epik_State_Penalty>  (1) 
 -0.0000

>  <r_epik_Charging_Adjusted_Penalty>  (1) 
0

>  <i_epik_Tot_Q>  (1) 
0

>  <i_epik_Tot_abs_Q>  (1) 
0

>  <s_lp_Force_Field>  (1) 
S-OPLS

>  <r_lp_Energy>  (1) 
54.7751

>  <b_lp_Chiralities_Consistent>  (1) 
1

>  <s_lp_Variant>  (1) 
lig_ejm_47-1

>  <s_i_glide_gridfile>  (1) 
glide-grid_TYK2-4GIH

>  <i_i_glide_lignum>  (1) 
7

>  <i_i_glide_rotatable_bonds>  (1) 
6

>  <r_i_docking_score>  (1) 
-9.73003171355248

>  <r_i_glide_ligand_efficiency>  (1) 
-0.405417988064687

>  <r_i_glide_ligand_efficiency_sa>  (1) 
-1.16942783692354

>  <r_i_glide_ligand_efficiency_ln>  (1) 
-2.32884307111528

>  <r_i_glide_gscore>  (1) 
-9.73003171355248

>  <r_i_glide_lipo>  (1) 
-3.5673030001191

>  <r_i_glide_hbond>  (1) 
-0.611341721934706

>  <r_i_glide_metal>  (1) 
-0

>  <r_i_glide_rewards>  (1) 
-2.33668585854289

>  <r_i_glide_evdw>  (1) 
-51.3234825134277

>  <r_i_glide_ecoul>  (1) 
-8.38070201873779

>  <r_i_glide_erotb>  (1) 
0.608578295526275

>  <r_i_glide_esite>  (1) 
0

>  <r_i_glide_emodel>  (1) 
-91.5347084160839

>  <r_i_glide_energy>  (1) 
-59.7041845321655

>  <r_i_glide_einternal>  (1) 
0.0364845618605614

>  <i_i_glide_confnum>  (1) 
7

>  <i_i_glide_posenum>  (1) 
4

>  <r_i_glide_eff_state_penalty>  (1) 
-0

>  <r_i_glide_rmsd>  (1) 
0.088345766098573

>  <s_glide_core_constrain_type>  (1) 
snapped_core_restrain

$$$$
