lig_jmc23
  xed2sdf           3D
 
 36 38  0  0  1  0  0  0  0  0999 V2000
   -5.3561   -3.6960  -16.2319 C   0  0  0  0  0  0  0  0  0  0  0  0
   -4.7711   -4.9730  -16.2125 C   0  0  0  0  0  0  0  0  0  0  0  0
   -5.5375   -6.0962  -15.8494 C   0  0  0  0  0  0  0  0  0  0  0  0
   -6.9012   -5.9479  -15.4810 C   0  0  0  0  0  0  0  0  0  0  0  0
   -7.4878   -4.6562  -15.5249 C   0  0  0  0  0  0  0  0  0  0  0  0
   -6.7132   -3.5420  -15.9001 C   0  0  0  0  0  0  0  0  0  0  0  0
   -9.1604   -4.3992  -15.1603 Cl  0  0  0  0  0  0  0  0  0  0  0  0
   -7.7159   -7.1312  -15.0394 C   0  0  0  0  0  0  0  0  0  0  0  0
   -8.1374   -7.2005  -13.8846 O   0  0  0  0  0  0  0  0  0  0  0  0
   -7.9145   -8.0499  -15.9997 N   0  0  0  0  0  0  0  0  0  0  0  0
   -8.7390   -9.2024  -16.0025 C   0  0  0  0  0  0  0  0  0  0  0  0
   -9.5905   -9.5941  -14.9492 C   0  0  0  0  0  0  0  0  0  0  0  0
  -10.3879  -10.7346  -15.1369 C   0  0  0  0  0  0  0  0  0  0  0  0
  -10.3608  -11.4916  -16.2564 N   0  0  0  0  0  0  0  0  0  0  0  0
   -9.5379  -11.1376  -17.2716 C   0  0  0  0  0  0  0  0  0  0  0  0
   -8.7264   -9.9818  -17.1725 C   0  0  0  0  0  0  0  0  0  0  0  0
   -9.5493  -11.9279  -18.4566 N   0  0  0  0  0  0  0  0  0  0  0  0
   -8.6429  -12.0244  -19.4542 C   0  0  0  0  0  0  0  0  0  0  0  0
   -7.6011  -11.3701  -19.5211 O   0  0  0  0  0  0  0  0  0  0  0  0
   -9.0334  -13.0123  -20.5118 C   0  0  0  0  0  0  0  0  0  0  0  0
   -7.9809  -13.8692  -21.2029 C   0  0  0  0  0  0  0  0  0  0  0  0
   -8.6094  -12.7177  -21.9399 C   0  0  0  0  0  0  0  0  0  0  0  0
   -6.6479  -13.7206  -20.8637 F   0  0  0  0  0  0  0  0  0  0  0  0
   -4.7586   -7.6357  -15.8606 Cl  0  0  0  0  0  0  0  0  0  0  0  0
   -4.7647   -2.8362  -16.5065 H   0  0  0  0  0  0  0  0  0  0  0  0
   -7.1635   -2.5619  -15.9332 H   0  0  0  0  0  0  0  0  0  0  0  0
   -7.4427   -7.8694  -16.8718 H   0  0  0  0  0  0  0  0  0  0  0  0
   -8.1029   -9.6612  -17.9895 H   0  0  0  0  0  0  0  0  0  0  0  0
  -10.3525  -12.5343  -18.5439 H   0  0  0  0  0  0  0  0  0  0  0  0
   -7.9799  -11.8490  -22.1337 H   0  0  0  0  0  0  0  0  0  0  0  0
   -9.3461  -12.9340  -22.7094 H   0  0  0  0  0  0  0  0  0  0  0  0
   -8.2101  -14.8972  -21.4757 H   0  0  0  0  0  0  0  0  0  0  0  0
  -10.0043  -13.4899  -20.3830 H   0  0  0  0  0  0  0  0  0  0  0  0
  -11.0664  -11.0506  -14.3576 H   0  0  0  0  0  0  0  0  0  0  0  0
   -9.6712   -9.0422  -14.0252 H   0  0  0  0  0  0  0  0  0  0  0  0
   -3.7298   -5.0927  -16.4759 H   0  0  0  0  0  0  0  0  0  0  0  0
  1  2  2  0
  1  6  1  0
  2  3  1  0
  3  4  2  0
  3 24  1  0
  4  5  1  0
  4  8  1  0
  5  6  2  0
  5  7  1  0
  8  9  2  0
  8 10  1  0
 10 11  1  0
 11 12  2  0
 11 16  1  0
 12 13  1  0
 13 14  2  0
 14 15  1  0
 15 16  2  0
 15 17  1  0
 17 18  1  0
 18 19  2  0
 18 20  1  0
 20 21  1  0
 20 22  1  0
 21 22  1  0
 21 23  1  0
  2 36  1  0
  6 26  1  0
 10 27  1  0
 12 35  1  0
 13 34  1  0
 16 28  1  0
 17 29  1  0
 20 33  1  0
 21 32  1  0
 22 30  1  0
 22 31  1  0
 25  1  1  0
M  END
>  <s_m_source_file>
ligprep_tyk2.smi

>  <i_m_source_file_index>
13

>  <i_lp_mmshare_version>
53161

>  <i_f3d_flags>
0

>  <s_epik_input>
Q2xjMVtjSF1bY0hdW2NIXWMoQ2wpYzFDKD1PKVtOSF1jMltjSF1bY0hdbmMoW2NIXTIpW05IXUMoPU8pW0NAQEhdM1tDQEhdKEYpW0NIMl0z

>  <s_epik_cmdline>
J2VwaWtfcHl0aG9uJywgJy1waHQnLCAnMC4wJywgJy1waCcsICc3LjQnLCAnLXRuJywgJzgnLCAnLW1hJywgJzUwMCcsICctaW1hZScsICc8aW5maWxlLm1hZT4nLCAnLW9tYWUnLCAnPG91dGZpbGUubWFlPic=

>  <r_lp_tautomer_probability>
1

>  <r_epik_Ionization_Penalty>
  0.0036

>  <r_epik_Ionization_Penalty_Charging>
  0.0000

>  <r_epik_Ionization_Penalty_Neutral>
  0.0036

>  <r_epik_State_Penalty>
 -0.0000

>  <r_epik_Charging_Adjusted_Penalty>
0

>  <i_epik_Tot_Q>
0

>  <i_epik_Tot_abs_Q>
0

>  <s_lp_Force_Field>
S-OPLS

>  <r_lp_Energy>
48.6923

>  <b_lp_Chiralities_Consistent>
1

>  <s_lp_Variant>
lig_jmc_23-1

>  <s_i_glide_gridfile>
glide-grid_TYK2-4GIH

>  <i_i_glide_lignum>
13

>  <i_i_glide_rotatable_bonds>
6

>  <r_i_docking_score>
-9.76366106132043

>  <r_i_glide_ligand_efficiency>
-0.406819210888351

>  <r_i_glide_ligand_efficiency_sa>
-1.17346966294993

>  <r_i_glide_ligand_efficiency_ln>
-2.33689211718637

>  <r_i_glide_gscore>
-9.76366106132043

>  <r_i_glide_lipo>
-3.62125074819138

>  <r_i_glide_hbond>
-0.588760251427907

>  <r_i_glide_metal>
-0

>  <r_i_glide_rewards>
-2.15561480592231

>  <r_i_glide_evdw>
-51.2152786254883

>  <r_i_glide_ecoul>
-9.34652042388916

>  <r_i_glide_erotb>
0.596929406347641

>  <r_i_glide_esite>
-0.0322226672686807

>  <r_i_glide_emodel>
-105.029289719937

>  <r_i_glide_energy>
-60.5617990493774

>  <r_i_glide_einternal>
-1.86973139193469e-07

>  <i_i_glide_confnum>
1

>  <i_i_glide_posenum>
1

>  <r_i_glide_eff_state_penalty>
-0

>  <r_i_glide_rmsd>
0.0573298672660373

>  <s_glide_core_constrain_type>
snapped_core_restrain

$$$$
