lig_p38a_2o
     RDKit          3D

 55 58  0  0  1  0  0  0  0  0999 V2000
   20.7619    7.8584   30.7680 H   0  0  0  0  0  0  0  0  0  0  0  0
   21.6415    8.4787   30.8592 C   0  0  0  0  0  0  0  0  0  0  0  0
   22.8354    7.8456   30.9063 N   0  0  0  0  0  0  0  0  0  0  0  0
   23.9069    8.6259   31.0290 C   0  0  0  0  0  0  0  0  0  0  0  0
   25.1218    7.9835   31.1795 N   0  0  0  0  0  0  0  0  0  0  0  0
   25.1172    6.9696   31.2033 H   0  0  0  0  0  0  0  0  0  0  0  0
   26.4076    8.6708   31.3120 C   0  0  0  0  0  0  0  0  0  0  0  0
   26.4845    9.3678   30.4752 H   0  0  0  0  0  0  0  0  0  0  0  0
   26.5576    9.4593   32.6316 C   0  0  0  0  0  0  0  0  0  0  0  0
   27.4588   10.0662   32.5527 H   0  0  0  0  0  0  0  0  0  0  0  0
   25.7361   10.1518   32.7994 H   0  0  0  0  0  0  0  0  0  0  0  0
   26.7214    8.5514   33.8551 C   0  0  0  0  0  0  0  0  0  0  0  0
   26.8658    9.1561   34.7518 H   0  0  0  0  0  0  0  0  0  0  0  0
   25.8321    7.9406   34.0185 H   0  0  0  0  0  0  0  0  0  0  0  0
   27.8676    7.7349   33.6657 O   0  0  0  0  0  0  0  0  0  0  0  0
   27.7369    6.8750   32.5425 C   0  0  0  0  0  0  0  0  0  0  0  0
   28.6171    6.2362   32.5079 H   0  0  0  0  0  0  0  0  0  0  0  0
   26.8754    6.2334   32.7024 H   0  0  0  0  0  0  0  0  0  0  0  0
   27.5843    7.6870   31.2383 C   0  0  0  0  0  0  0  0  0  0  0  0
   27.4612    7.0355   30.3758 H   0  0  0  0  0  0  0  0  0  0  0  0
   28.5052    8.2461   31.0704 H   0  0  0  0  0  0  0  0  0  0  0  0
   23.9051    9.9552   31.0840 N   0  0  0  0  0  0  0  0  0  0  0  0
   22.7345   10.6088   31.1241 C   0  0  0  0  0  0  0  0  0  0  0  0
   21.5361    9.8811   30.9880 C   0  0  0  0  0  0  0  0  0  0  0  0
   20.2752   10.6099   31.0369 C   0  0  0  0  0  0  0  0  0  0  0  0
   19.3694   10.0400   30.8871 H   0  0  0  0  0  0  0  0  0  0  0  0
   20.2575   11.9436   31.2597 C   0  0  0  0  0  0  0  0  0  0  0  0
   19.1072   12.6958   31.3129 O   0  0  0  0  0  0  0  0  0  0  0  0
   17.8566   12.1418   31.2251 C   0  0  0  0  0  0  0  0  0  0  0  0
   17.3224   11.3422   32.2593 C   0  0  0  0  0  0  0  0  0  0  0  0
   18.0756   11.0352   33.3401 F   0  0  0  0  0  0  0  0  0  0  0  0
   16.0017   10.8606   32.1663 C   0  0  0  0  0  0  0  0  0  0  0  0
   15.5975   10.2373   32.9508 H   0  0  0  0  0  0  0  0  0  0  0  0
   15.2265   11.1498   31.0286 C   0  0  0  0  0  0  0  0  0  0  0  0
   13.9831   10.6363   30.9085 F   0  0  0  0  0  0  0  0  0  0  0  0
   15.7478   11.9623   30.0060 C   0  0  0  0  0  0  0  0  0  0  0  0
   15.1458   12.1921   29.1405 H   0  0  0  0  0  0  0  0  0  0  0  0
   17.0546   12.4721   30.1151 C   0  0  0  0  0  0  0  0  0  0  0  0
   17.4499   13.1073   29.3350 H   0  0  0  0  0  0  0  0  0  0  0  0
   21.5006   12.7031   31.4390 C   0  0  0  0  0  0  0  0  0  0  0  0
   21.4711   13.9151   31.6564 O   0  0  0  0  0  0  0  0  0  0  0  0
   22.6787   12.0191   31.3661 N   0  0  0  0  0  0  0  0  0  0  0  0
   23.9546   12.7430   31.6054 C   0  0  0  0  0  0  0  0  0  0  0  0
   24.7860   12.2598   31.0904 H   0  0  0  0  0  0  0  0  0  0  0  0
   23.9186   13.7337   31.1526 H   0  0  0  0  0  0  0  0  0  0  0  0
   24.2887   12.8715   33.1104 C   0  0  0  0  0  0  0  0  0  0  0  0
   23.6155   13.5748   33.5993 H   0  0  0  0  0  0  0  0  0  0  0  0
   24.1812   11.9127   33.6174 H   0  0  0  0  0  0  0  0  0  0  0  0
   26.0244   13.4424   33.4241 S   0  0  0  0  0  6  0  0  0  0  0  0
   26.1437   13.8361   34.8353 O   0  0  0  0  0  0  0  0  0  0  0  0
   26.9620   12.4517   32.8853 O   0  0  0  0  0  0  0  0  0  0  0  0
   26.1678   14.9457   32.3768 C   0  0  0  0  0  0  0  0  0  0  0  0
   27.1155   15.4349   32.5900 H   0  0  0  0  0  0  0  0  0  0  0  0
   26.1471   14.6602   31.3250 H   0  0  0  0  0  0  0  0  0  0  0  0
   25.3488   15.6309   32.5768 H   0  0  0  0  0  0  0  0  0  0  0  0
  1  2  1  0
  2 24  2  0
  2  3  1  0
  3  4  2  0
  4  5  1  0
  4 22  1  0
  5  6  1  0
  5  7  1  0
  7 19  1  0
  7  8  1  0
  7  9  1  0
  9 10  1  0
  9 11  1  0
  9 12  1  0
 12 13  1  0
 12 14  1  0
 12 15  1  0
 15 16  1  0
 16 17  1  0
 16 18  1  0
 16 19  1  0
 19 20  1  0
 19 21  1  0
 22 23  2  0
 23 42  1  0
 23 24  1  0
 24 25  1  0
 25 26  1  0
 25 27  2  0
 27 28  1  0
 27 40  1  0
 28 29  1  0
 29 38  1  0
 29 30  2  0
 30 31  1  0
 30 32  1  0
 32 33  1  0
 32 34  2  0
 34 35  1  0
 34 36  1  0
 36 37  1  0
 36 38  2  0
 38 39  1  0
 40 41  2  0
 40 42  1  0
 42 43  1  0
 43 44  1  0
 43 45  1  0
 43 46  1  0
 46 47  1  0
 46 48  1  0
 46 49  1  0
 49 50  2  0
 49 51  2  0
 49 52  1  0
 52 53  1  0
 52 54  1  0
 52 55  1  0
M  END
>  <s_m_source_file>  (1) 
ligprep_p38.smi

>  <i_m_source_file_index>  (1) 
17

>  <i_lp_mmshare_version>  (1) 
53161

>  <i_f3d_flags>  (1) 
0

>  <s_epik_input>  (1) 
W0NIMl0xW0NIMl1PW0NIMl1bQ0gyXVtDSF0xW05IXWMobjIpbltjSF1jKGMyMylbY0hdYyhjKD1PKW4zW0NIMl1bQ0gyXVMoPU8pKD1PKVtDSDNdKU9jNGMoRilbY0hdYyhGKVtjSF1bY0hdNA==

>  <s_epik_cmdline>  (1) 
J2VwaWtfcHl0aG9uJywgJy1waHQnLCAnMC4wJywgJy1waCcsICc3LjQnLCAnLXRuJywgJzgnLCAnLW1hJywgJzUwMCcsICctaW1hZScsICc8aW5maWxlLm1hZT4nLCAnLW9tYWUnLCAnPG91dGZpbGUubWFlPic=

>  <r_lp_tautomer_probability>  (1) 
1

>  <r_epik_Ionization_Penalty>  (1) 
  0.0000

>  <r_epik_Ionization_Penalty_Charging>  (1) 
  0.0000

>  <r_epik_Ionization_Penalty_Neutral>  (1) 
  0.0000

>  <r_epik_State_Penalty>  (1) 
 -0.0000

>  <r_epik_Charging_Adjusted_Penalty>  (1) 
2.4645e-06

>  <i_epik_Tot_Q>  (1) 
0

>  <i_epik_Tot_abs_Q>  (1) 
0

>  <s_epik_Chemistry_Notes>  (1) 
This compound has an imine and may undergo hydrolysis.

>  <s_lp_Force_Field>  (1) 
S-OPLS

>  <r_lp_Energy>  (1) 
44.7544

>  <b_lp_Chiralities_Consistent>  (1) 
1

>  <s_lp_Variant>  (1) 
lig_p38a_2o-1

>  <s_i_glide_gridfile>  (1) 
glide-grid_P38-3FLY

>  <i_i_glide_lignum>  (1) 
18

>  <i_i_glide_rotatable_bonds>  (1) 
7

>  <r_i_docking_score>  (1) 
-10.5433607655871

>  <r_i_glide_ligand_efficiency>  (1) 
-0.319495780775366

>  <r_i_glide_ligand_efficiency_sa>  (1) 
-1.02479368393141

>  <r_i_glide_ligand_efficiency_ln>  (1) 
-2.34478884366614

>  <r_i_glide_gscore>  (1) 
-10.5433607655871

>  <r_i_glide_lipo>  (1) 
-3.07812294212996

>  <r_i_glide_hbond>  (1) 
-1.27203556853059

>  <r_i_glide_metal>  (1) 
-0

>  <r_i_glide_rewards>  (1) 
-2.29134130487641

>  <r_i_glide_evdw>  (1) 
-48.430850982666

>  <r_i_glide_ecoul>  (1) 
-13.0610055923462

>  <r_i_glide_erotb>  (1) 
0.52704156827961

>  <r_i_glide_esite>  (1) 
-0.0482091303444792

>  <r_i_glide_emodel>  (1) 
-96.5279237272913

>  <r_i_glide_energy>  (1) 
-61.4918565750122

>  <r_i_glide_einternal>  (1) 
4.423499584198

>  <i_i_glide_confnum>  (1) 
26

>  <i_i_glide_posenum>  (1) 
14

>  <r_i_glide_eff_state_penalty>  (1) 
-0

>  <r_i_glide_rmsd>  (1) 
0.0919537612784021

>  <s_glide_core_constrain_type>  (1) 
snapped_core_restrain

$$$$
