lig_p38a_2k
     RDKit          3D

 43 46  0  0  1  0  0  0  0  0999 V2000
   20.7256    7.8361   30.7277 H   0  0  0  0  0  0  0  0  0  0  0  0
   21.6007    8.4523   30.8596 C   0  0  0  0  0  0  0  0  0  0  0  0
   22.8026    7.8361   30.9014 N   0  0  0  0  0  0  0  0  0  0  0  0
   23.8687    8.6160   31.0733 C   0  0  0  0  0  0  0  0  0  0  0  0
   25.0869    7.9686   31.1452 N   0  0  0  0  0  0  0  0  0  0  0  0
   25.0892    6.9552   31.1178 H   0  0  0  0  0  0  0  0  0  0  0  0
   26.3624    8.6637   31.2905 C   0  0  0  0  0  0  0  0  0  0  0  0
   26.1957    9.5493   31.9059 H   0  0  0  0  0  0  0  0  0  0  0  0
   27.3824    7.8029   32.0419 C   0  0  0  0  0  0  0  0  0  0  0  0
   27.5987    6.8910   31.4825 H   0  0  0  0  0  0  0  0  0  0  0  0
   26.9845    7.4942   33.0091 H   0  0  0  0  0  0  0  0  0  0  0  0
   28.6726    8.6071   32.2439 C   0  0  0  0  0  0  0  0  0  0  0  0
   29.4317    7.9908   32.7256 H   0  0  0  0  0  0  0  0  0  0  0  0
   28.4992    9.4696   32.8893 H   0  0  0  0  0  0  0  0  0  0  0  0
   29.1587    9.0372   30.9807 O   0  0  0  0  0  0  0  0  0  0  0  0
   28.2464    9.8582   30.2593 C   0  0  0  0  0  0  0  0  0  0  0  0
   28.7079   10.0995   29.3100 H   0  0  0  0  0  0  0  0  0  0  0  0
   28.0650   10.7926   30.7923 H   0  0  0  0  0  0  0  0  0  0  0  0
   26.9455    9.1144   29.9617 C   0  0  0  0  0  0  0  0  0  0  0  0
   26.2532    9.7700   29.4324 H   0  0  0  0  0  0  0  0  0  0  0  0
   27.1369    8.2576   29.3142 H   0  0  0  0  0  0  0  0  0  0  0  0
   23.8617    9.9430   31.2050 N   0  0  0  0  0  0  0  0  0  0  0  0
   22.6728   10.5685   31.1917 C   0  0  0  0  0  0  0  0  0  0  0  0
   21.4802    9.8451   31.0166 C   0  0  0  0  0  0  0  0  0  0  0  0
   20.2127   10.5761   31.0380 C   0  0  0  0  0  0  0  0  0  0  0  0
   19.3144   10.0000   30.8832 H   0  0  0  0  0  0  0  0  0  0  0  0
   20.1866   11.9147   31.2496 C   0  0  0  0  0  0  0  0  0  0  0  0
   19.0396   12.6712   31.2801 O   0  0  0  0  0  0  0  0  0  0  0  0
   17.7899   12.1176   31.1999 C   0  0  0  0  0  0  0  0  0  0  0  0
   17.2576   11.3284   32.2414 C   0  0  0  0  0  0  0  0  0  0  0  0
   18.0141   11.0360   33.3239 F   0  0  0  0  0  0  0  0  0  0  0  0
   15.9362   10.8479   32.1555 C   0  0  0  0  0  0  0  0  0  0  0  0
   15.5313   10.2361   32.9488 H   0  0  0  0  0  0  0  0  0  0  0  0
   15.1573   11.1337   31.0190 C   0  0  0  0  0  0  0  0  0  0  0  0
   13.9068   10.6361   30.9096 F   0  0  0  0  0  0  0  0  0  0  0  0
   15.6807   11.9344   29.9889 C   0  0  0  0  0  0  0  0  0  0  0  0
   15.0776   12.1593   29.1223 H   0  0  0  0  0  0  0  0  0  0  0  0
   16.9878   12.4421   30.0906 C   0  0  0  0  0  0  0  0  0  0  0  0
   17.3862   13.0682   29.3047 H   0  0  0  0  0  0  0  0  0  0  0  0
   21.4301   12.6698   31.4327 C   0  0  0  0  0  0  0  0  0  0  0  0
   21.4528   13.8820   31.6354 O   0  0  0  0  0  0  0  0  0  0  0  0
   22.5766   11.9641   31.3751 N   0  0  0  0  0  0  0  0  0  0  0  0
   23.4456   12.4629   31.4946 H   0  0  0  0  0  0  0  0  0  0  0  0
  1  2  1  0
  2 24  2  0
  2  3  1  0
  3  4  2  0
  4  5  1  0
  4 22  1  0
  5  6  1  0
  5  7  1  0
  7 19  1  0
  7  8  1  0
  7  9  1  0
  9 10  1  0
  9 11  1  0
  9 12  1  0
 12 13  1  0
 12 14  1  0
 12 15  1  0
 15 16  1  0
 16 17  1  0
 16 18  1  0
 16 19  1  0
 19 20  1  0
 19 21  1  0
 22 23  2  0
 23 42  1  0
 23 24  1  0
 24 25  1  0
 25 26  1  0
 25 27  2  0
 27 28  1  0
 27 40  1  0
 28 29  1  0
 29 38  1  0
 29 30  2  0
 30 31  1  0
 30 32  1  0
 32 33  1  0
 32 34  2  0
 34 35  1  0
 34 36  1  0
 36 37  1  0
 36 38  2  0
 38 39  1  0
 40 41  2  0
 40 42  1  0
 42 43  1  0
M  END
>  <s_m_source_file>  (1) 
ligprep_p38.smi

>  <i_m_source_file_index>  (1) 
13

>  <i_lp_mmshare_version>  (1) 
53161

>  <i_f3d_flags>  (1) 
0

>  <s_epik_input>  (1) 
W0NIMl0xW0NIMl1PW0NIMl1bQ0gyXVtDSF0xW05IXWMobjIpbltjSF1jKGMyMylbY0hdYyhjKD1PKVtuSF0zKU9jNGMoRilbY0hdYyhGKVtjSF1bY0hdNA==

>  <s_epik_cmdline>  (1) 
J2VwaWtfcHl0aG9uJywgJy1waHQnLCAnMC4wJywgJy1waCcsICc3LjQnLCAnLXRuJywgJzgnLCAnLW1hJywgJzUwMCcsICctaW1hZScsICc8aW5maWxlLm1hZT4nLCAnLW9tYWUnLCAnPG91dGZpbGUubWFlPic=

>  <r_lp_tautomer_probability>  (1) 
1

>  <r_epik_Ionization_Penalty>  (1) 
  0.2720

>  <r_epik_Ionization_Penalty_Charging>  (1) 
  0.2720

>  <r_epik_Ionization_Penalty_Neutral>  (1) 
  0.0000

>  <r_epik_State_Penalty>  (1) 
  0.2641

>  <r_epik_Charging_Adjusted_Penalty>  (1) 
0.53611

>  <i_epik_Tot_Q>  (1) 
0

>  <i_epik_Tot_abs_Q>  (1) 
0

>  <s_lp_Force_Field>  (1) 
S-OPLS

>  <r_lp_Energy>  (1) 
39.5292

>  <b_lp_Chiralities_Consistent>  (1) 
1

>  <s_lp_Variant>  (1) 
lig_p38a_2k-1

>  <s_i_glide_gridfile>  (1) 
glide-grid_P38-3FLY

>  <i_i_glide_lignum>  (1) 
14

>  <i_i_glide_rotatable_bonds>  (1) 
4

>  <r_i_docking_score>  (1) 
-10.7581323845421

>  <r_i_glide_ligand_efficiency>  (1) 
-0.398449347575632

>  <r_i_glide_ligand_efficiency_sa>  (1) 
-1.19534804141367

>  <r_i_glide_ligand_efficiency_ln>  (1) 
-2.50431585744747

>  <r_i_glide_gscore>  (1) 
-11.0222323845421

>  <r_i_glide_lipo>  (1) 
-3.56841973789314

>  <r_i_glide_hbond>  (1) 
-1.26641290825635

>  <r_i_glide_metal>  (1) 
-0

>  <r_i_glide_rewards>  (1) 
-2.90721433985303

>  <r_i_glide_evdw>  (1) 
-40.9084167480469

>  <r_i_glide_ecoul>  (1) 
-11.911153793335

>  <r_i_glide_erotb>  (1) 
0.551908507863034

>  <r_i_glide_esite>  (1) 
0

>  <r_i_glide_emodel>  (1) 
-87.5185954357413

>  <r_i_glide_energy>  (1) 
-52.8195705413818

>  <r_i_glide_einternal>  (1) 
0.340505391359329

>  <i_i_glide_confnum>  (1) 
1

>  <i_i_glide_posenum>  (1) 
1

>  <r_i_glide_eff_state_penalty>  (1) 
0.2641

>  <r_i_glide_rmsd>  (1) 
0.0939939351703565

>  <s_glide_core_constrain_type>  (1) 
snapped_core_restrain

$$$$
