lig_p38a_2n
     RDKit          3D

 53 56  0  0  1  0  0  0  0  0999 V2000
   26.7340   13.0332   31.9368 H   0  0  0  0  0  0  0  0  0  0  0  0
   26.6636   12.9505   32.8835 O   0  0  0  0  0  0  0  0  0  0  0  0
   25.5230   13.6619   33.3155 C   0  0  0  0  0  0  0  0  0  0  0  0
   25.4953   14.6438   32.8380 H   0  0  0  0  0  0  0  0  0  0  0  0
   25.6169   13.8353   34.3876 H   0  0  0  0  0  0  0  0  0  0  0  0
   24.2366   12.8725   33.0232 C   0  0  0  0  0  0  0  0  0  0  0  0
   23.4141   13.3669   33.5420 H   0  0  0  0  0  0  0  0  0  0  0  0
   24.3140   11.8811   33.4692 H   0  0  0  0  0  0  0  0  0  0  0  0
   23.8917   12.7645   31.5229 C   0  0  0  0  0  0  0  0  0  0  0  0
   24.7189   12.3014   30.9828 H   0  0  0  0  0  0  0  0  0  0  0  0
   23.8363   13.7618   31.0863 H   0  0  0  0  0  0  0  0  0  0  0  0
   22.6347   12.0112   31.3130 N   0  0  0  0  0  0  0  0  0  0  0  0
   21.4502   12.6831   31.3819 C   0  0  0  0  0  0  0  0  0  0  0  0
   21.4099   13.8982   31.5878 O   0  0  0  0  0  0  0  0  0  0  0  0
   20.2163   11.9124   31.2153 C   0  0  0  0  0  0  0  0  0  0  0  0
   19.0598   12.6559   31.2848 O   0  0  0  0  0  0  0  0  0  0  0  0
   17.8112   12.1008   31.1910 C   0  0  0  0  0  0  0  0  0  0  0  0
   17.0188   12.4174   30.0722 C   0  0  0  0  0  0  0  0  0  0  0  0
   17.4165   13.0326   29.2825 H   0  0  0  0  0  0  0  0  0  0  0  0
   15.7100   11.9099   29.9692 C   0  0  0  0  0  0  0  0  0  0  0  0
   15.1147   12.1288   29.0929 H   0  0  0  0  0  0  0  0  0  0  0  0
   15.1757   11.1255   31.0066 C   0  0  0  0  0  0  0  0  0  0  0  0
   13.9224   10.6361   30.9074 F   0  0  0  0  0  0  0  0  0  0  0  0
   15.9516   10.8444   32.1477 C   0  0  0  0  0  0  0  0  0  0  0  0
   15.5447   10.2377   32.9431 H   0  0  0  0  0  0  0  0  0  0  0  0
   17.2731   11.3224   32.2373 C   0  0  0  0  0  0  0  0  0  0  0  0
   18.0282   11.0513   33.3241 F   0  0  0  0  0  0  0  0  0  0  0  0
   20.2492   10.5761   31.0025 C   0  0  0  0  0  0  0  0  0  0  0  0
   19.3479    9.9976   30.8641 H   0  0  0  0  0  0  0  0  0  0  0  0
   21.5230    9.8596   30.9681 C   0  0  0  0  0  0  0  0  0  0  0  0
   22.7136   10.5941   31.1215 C   0  0  0  0  0  0  0  0  0  0  0  0
   23.8957    9.9457   31.1287 N   0  0  0  0  0  0  0  0  0  0  0  0
   23.9066    8.6194   31.0543 C   0  0  0  0  0  0  0  0  0  0  0  0
   25.1273    7.9861   31.1951 N   0  0  0  0  0  0  0  0  0  0  0  0
   25.1291    6.9721   31.2070 H   0  0  0  0  0  0  0  0  0  0  0  0
   26.4130    8.6794   31.3156 C   0  0  0  0  0  0  0  0  0  0  0  0
   26.4853    9.3571   30.4648 H   0  0  0  0  0  0  0  0  0  0  0  0
   26.5682    9.5007   32.6181 C   0  0  0  0  0  0  0  0  0  0  0  0
   27.4473   10.1422   32.5273 H   0  0  0  0  0  0  0  0  0  0  0  0
   25.7405   10.1805   32.7893 H   0  0  0  0  0  0  0  0  0  0  0  0
   26.7463    8.6024   33.8497 C   0  0  0  0  0  0  0  0  0  0  0  0
   26.9046    9.2163   34.7359 H   0  0  0  0  0  0  0  0  0  0  0  0
   25.8528    8.0040   34.0295 H   0  0  0  0  0  0  0  0  0  0  0  0
   27.8809    7.7645   33.6605 O   0  0  0  0  0  0  0  0  0  0  0  0
   27.7392    6.8867   32.5527 C   0  0  0  0  0  0  0  0  0  0  0  0
   28.6131    6.2370   32.5019 H   0  0  0  0  0  0  0  0  0  0  0  0
   26.8788    6.2366   32.7221 H   0  0  0  0  0  0  0  0  0  0  0  0
   27.5833    7.6902   31.2472 C   0  0  0  0  0  0  0  0  0  0  0  0
   27.4472    7.0228   30.3978 H   0  0  0  0  0  0  0  0  0  0  0  0
   28.5078    8.2456   31.0622 H   0  0  0  0  0  0  0  0  0  0  0  0
   22.8404    7.8371   30.9076 N   0  0  0  0  0  0  0  0  0  0  0  0
   21.6421    8.4599   30.8448 C   0  0  0  0  0  0  0  0  0  0  0  0
   20.7688    7.8369   30.7384 H   0  0  0  0  0  0  0  0  0  0  0  0
  1  2  1  0
  2  3  1  0
  3  4  1  0
  3  5  1  0
  3  6  1  0
  6  7  1  0
  6  8  1  0
  6  9  1  0
  9 10  1  0
  9 11  1  0
  9 12  1  0
 12 31  1  0
 12 13  1  0
 13 14  2  0
 13 15  1  0
 15 16  1  0
 15 28  2  0
 16 17  1  0
 17 26  1  0
 17 18  2  0
 18 19  1  0
 18 20  1  0
 20 21  1  0
 20 22  2  0
 22 23  1  0
 22 24  1  0
 24 25  1  0
 24 26  2  0
 26 27  1  0
 28 29  1  0
 28 30  1  0
 30 52  1  0
 30 31  2  0
 31 32  1  0
 32 33  2  0
 33 34  1  0
 33 51  1  0
 34 35  1  0
 34 36  1  0
 36 48  1  0
 36 37  1  0
 36 38  1  0
 38 39  1  0
 38 40  1  0
 38 41  1  0
 41 42  1  0
 41 43  1  0
 41 44  1  0
 44 45  1  0
 45 46  1  0
 45 47  1  0
 45 48  1  0
 48 49  1  0
 48 50  1  0
 51 52  2  0
 52 53  1  0
M  END
>  <s_m_source_file>  (1) 
ligprep_p38.smi

>  <i_m_source_file_index>  (1) 
16

>  <i_lp_mmshare_version>  (1) 
53161

>  <i_f3d_flags>  (1) 
0

>  <s_epik_input>  (1) 
W0NIMl0xW0NIMl1PW0NIMl1bQ0gyXVtDSF0xW05IXWMobltjSF0yKW5jKGMyMyluKFtDSDJdW0NIMl1bQ0gyXVtPSF0pYyg9TyljKFtjSF0zKU9jNFtjSF1bY0hdYyhGKVtjSF1jNEY=

>  <s_epik_cmdline>  (1) 
J2VwaWtfcHl0aG9uJywgJy1waHQnLCAnMC4wJywgJy1waCcsICc3LjQnLCAnLXRuJywgJzgnLCAnLW1hJywgJzUwMCcsICctaW1hZScsICc8aW5maWxlLm1hZT4nLCAnLW9tYWUnLCAnPG91dGZpbGUubWFlPic=

>  <r_lp_tautomer_probability>  (1) 
1

>  <r_epik_Ionization_Penalty>  (1) 
  0.0000

>  <r_epik_Ionization_Penalty_Charging>  (1) 
  0.0000

>  <r_epik_Ionization_Penalty_Neutral>  (1) 
  0.0000

>  <r_epik_State_Penalty>  (1) 
 -0.0000

>  <r_epik_Charging_Adjusted_Penalty>  (1) 
1.61619e-06

>  <i_epik_Tot_Q>  (1) 
0

>  <i_epik_Tot_abs_Q>  (1) 
0

>  <s_epik_Chemistry_Notes>  (1) 
This compound has an imine and may undergo hydrolysis.

>  <s_lp_Force_Field>  (1) 
S-OPLS

>  <r_lp_Energy>  (1) 
54.0814

>  <b_lp_Chiralities_Consistent>  (1) 
1

>  <s_lp_Variant>  (1) 
lig_p38a_2n-1

>  <s_i_glide_gridfile>  (1) 
glide-grid_P38-3FLY

>  <i_i_glide_lignum>  (1) 
17

>  <i_i_glide_rotatable_bonds>  (1) 
8

>  <r_i_docking_score>  (1) 
-11.0648255771671

>  <r_i_glide_ligand_efficiency>  (1) 
-0.356929857327971

>  <r_i_glide_ligand_efficiency_sa>  (1) 
-1.12125254678745

>  <r_i_glide_ligand_efficiency_ln>  (1) 
-2.49545726383121

>  <r_i_glide_gscore>  (1) 
-11.0648255771671

>  <r_i_glide_lipo>  (1) 
-3.09292269647904

>  <r_i_glide_hbond>  (1) 
-1.51023800749692

>  <r_i_glide_metal>  (1) 
-0

>  <r_i_glide_rewards>  (1) 
-2.56671745416606

>  <r_i_glide_evdw>  (1) 
-45.5715141296387

>  <r_i_glide_ecoul>  (1) 
-15.741868019104

>  <r_i_glide_erotb>  (1) 
0.744908490322443

>  <r_i_glide_esite>  (1) 
0

>  <r_i_glide_emodel>  (1) 
-98.0051529344851

>  <r_i_glide_energy>  (1) 
-61.3133821487427

>  <r_i_glide_einternal>  (1) 
5.39926338195801

>  <i_i_glide_confnum>  (1) 
87

>  <i_i_glide_posenum>  (1) 
78

>  <r_i_glide_eff_state_penalty>  (1) 
-0

>  <r_i_glide_rmsd>  (1) 
0.0954572170897109

>  <s_glide_core_constrain_type>  (1) 
snapped_core_restrain

$$$$
