lig_p38a_3flw
     RDKit          3D

 49 51  0  0  1  0  0  0  0  0999 V2000
   26.2045    5.8975   32.8248 H   0  0  0  0  0  0  0  0  0  0  0  0
   26.1989    6.5798   33.4867 O   0  0  0  0  0  0  0  0  0  0  0  0
   27.3048    7.4276   33.2736 C   0  0  0  0  0  0  0  0  0  0  0  0
   27.1773    8.3381   33.8585 H   0  0  0  0  0  0  0  0  0  0  0  0
   28.1895    6.9214   33.6579 H   0  0  0  0  0  0  0  0  0  0  0  0
   27.4961    7.7437   31.7790 C   0  0  0  0  0  0  0  0  0  0  0  0
   28.4722    8.2206   31.6790 H   0  0  0  0  0  0  0  0  0  0  0  0
   27.5665    6.8192   31.2052 H   0  0  0  0  0  0  0  0  0  0  0  0
   26.4297    8.6823   31.1709 C   0  0  0  0  0  0  0  0  0  0  0  0
   26.3288    9.5388   31.8389 H   0  0  0  0  0  0  0  0  0  0  0  0
   25.1388    8.0046   31.0496 N   0  0  0  0  0  0  0  0  0  0  0  0
   25.1494    6.9943   30.9949 H   0  0  0  0  0  0  0  0  0  0  0  0
   23.9029    8.6288   31.0871 C   0  0  0  0  0  0  0  0  0  0  0  0
   22.8411    7.8452   30.8997 N   0  0  0  0  0  0  0  0  0  0  0  0
   21.6410    8.4658   30.8956 C   0  0  0  0  0  0  0  0  0  0  0  0
   20.7731    7.8446   30.7445 H   0  0  0  0  0  0  0  0  0  0  0  0
   21.5128    9.8559   31.0888 C   0  0  0  0  0  0  0  0  0  0  0  0
   22.6962   10.5923   31.2828 C   0  0  0  0  0  0  0  0  0  0  0  0
   23.8811    9.9506   31.2775 N   0  0  0  0  0  0  0  0  0  0  0  0
   22.5995   12.0070   31.4845 N   0  0  0  0  0  0  0  0  0  0  0  0
   23.8538   12.7562   31.6619 C   0  0  0  0  0  0  0  0  0  0  0  0
   23.7394   13.8156   31.8962 H   0  0  0  0  0  0  0  0  0  0  0  0
   24.4530   12.3227   32.4622 H   0  0  0  0  0  0  0  0  0  0  0  0
   24.4281   12.7023   30.7393 H   0  0  0  0  0  0  0  0  0  0  0  0
   21.4167   12.6837   31.4871 C   0  0  0  0  0  0  0  0  0  0  0  0
   21.3615   13.9062   31.6332 O   0  0  0  0  0  0  0  0  0  0  0  0
   20.1936   11.9004   31.3019 C   0  0  0  0  0  0  0  0  0  0  0  0
   19.0356   12.6437   31.2985 O   0  0  0  0  0  0  0  0  0  0  0  0
   17.7893   12.0829   31.2116 C   0  0  0  0  0  0  0  0  0  0  0  0
   17.2453   11.3135   32.2614 C   0  0  0  0  0  0  0  0  0  0  0  0
   17.9905   11.0361   33.3565 F   0  0  0  0  0  0  0  0  0  0  0  0
   15.9193   10.8408   32.1736 C   0  0  0  0  0  0  0  0  0  0  0  0
   15.5068   10.2496   32.9777 H   0  0  0  0  0  0  0  0  0  0  0  0
   15.1482   11.1193   31.0273 C   0  0  0  0  0  0  0  0  0  0  0  0
   13.8968   10.6308   30.9096 F   0  0  0  0  0  0  0  0  0  0  0  0
   15.6875   11.8963   29.9876 C   0  0  0  0  0  0  0  0  0  0  0  0
   15.0857   12.1179   29.1200 H   0  0  0  0  0  0  0  0  0  0  0  0
   16.9994   12.3912   30.0876 C   0  0  0  0  0  0  0  0  0  0  0  0
   17.4039   12.9999   29.2888 H   0  0  0  0  0  0  0  0  0  0  0  0
   20.2395   10.5671   31.1001 C   0  0  0  0  0  0  0  0  0  0  0  0
   19.3464    9.9862   30.9299 H   0  0  0  0  0  0  0  0  0  0  0  0
   26.8987    9.2129   29.8029 C   0  0  0  0  0  0  0  0  0  0  0  0
   27.9152    9.5897   29.9042 H   0  0  0  0  0  0  0  0  0  0  0  0
   26.9477    8.3914   29.0890 H   0  0  0  0  0  0  0  0  0  0  0  0
   26.0079   10.3300   29.2424 C   0  0  0  0  0  0  0  0  0  0  0  0
   25.0230    9.9482   28.9765 H   0  0  0  0  0  0  0  0  0  0  0  0
   25.8923   11.1370   29.9657 H   0  0  0  0  0  0  0  0  0  0  0  0
   26.5478   10.8588   28.0699 O   0  0  0  0  0  0  0  0  0  0  0  0
   27.1178   11.5760   28.3065 H   0  0  0  0  0  0  0  0  0  0  0  0
  1  2  1  0
  2  3  1  0
  3  4  1  0
  3  5  1  0
  3  6  1  0
  6  7  1  0
  6  8  1  0
  6  9  1  0
  9 10  1  0
  9 11  1  0
  9 42  1  0
 11 12  1  0
 11 13  1  0
 13 19  2  0
 13 14  1  0
 14 15  2  0
 15 16  1  0
 15 17  1  0
 17 40  1  0
 17 18  2  0
 18 19  1  0
 18 20  1  0
 20 21  1  0
 20 25  1  0
 21 22  1  0
 21 23  1  0
 21 24  1  0
 25 26  2  0
 25 27  1  0
 27 28  1  0
 27 40  2  0
 28 29  1  0
 29 38  1  0
 29 30  2  0
 30 31  1  0
 30 32  1  0
 32 33  1  0
 32 34  2  0
 34 35  1  0
 34 36  1  0
 36 37  1  0
 36 38  2  0
 38 39  1  0
 40 41  1  0
 42 43  1  0
 42 44  1  0
 42 45  1  0
 45 46  1  0
 45 47  1  0
 45 48  1  0
 48 49  1  0
M  END
>  <s_m_source_file>  (1) 
ligprep_p38.smi

>  <i_m_source_file_index>  (1) 
30

>  <i_lp_mmshare_version>  (1) 
53161

>  <i_f3d_flags>  (1) 
0

>  <s_epik_input>  (1) 
W09IXVtDSDJdW0NIMl1bQ0hdKFtDSDJdW0NIMl1bT0hdKVtOSF1jKG5bY0hdMSluYyhjMTIpbihbQ0gzXSljKD1PKWMoW2NIXTIpT2MzYyhGKVtjSF1jKEYpW2NIXVtjSF0z

>  <s_epik_cmdline>  (1) 
J2VwaWtfcHl0aG9uJywgJy1waHQnLCAnMC4wJywgJy1waCcsICc3LjQnLCAnLXRuJywgJzgnLCAnLW1hJywgJzUwMCcsICctaW1hZScsICc8aW5maWxlLm1hZT4nLCAnLW9tYWUnLCAnPG91dGZpbGUubWFlPic=

>  <r_lp_tautomer_probability>  (1) 
1

>  <r_epik_Ionization_Penalty>  (1) 
  0.0000

>  <r_epik_Ionization_Penalty_Charging>  (1) 
  0.0000

>  <r_epik_Ionization_Penalty_Neutral>  (1) 
  0.0000

>  <r_epik_State_Penalty>  (1) 
 -0.0000

>  <r_epik_Charging_Adjusted_Penalty>  (1) 
1.35498e-06

>  <i_epik_Tot_Q>  (1) 
0

>  <i_epik_Tot_abs_Q>  (1) 
0

>  <s_epik_Chemistry_Notes>  (1) 
This compound has an imine and may undergo hydrolysis.

>  <s_lp_Force_Field>  (1) 
S-OPLS

>  <r_lp_Energy>  (1) 
49.9596

>  <b_lp_Chiralities_Consistent>  (1) 
1

>  <s_lp_Variant>  (1) 
lig_p38a_3flw-1

>  <s_i_glide_gridfile>  (1) 
glide-grid_P38-3FLY

>  <i_i_glide_lignum>  (1) 
31

>  <i_i_glide_rotatable_bonds>  (1) 
10

>  <r_i_docking_score>  (1) 
-11.3030341702136

>  <r_i_glide_ligand_efficiency>  (1) 
-0.389759798972884

>  <r_i_glide_ligand_efficiency_sa>  (1) 
-1.19746558701625

>  <r_i_glide_ligand_efficiency_ln>  (1) 
-2.58810820476263

>  <r_i_glide_gscore>  (1) 
-11.3030341702136

>  <r_i_glide_lipo>  (1) 
-3.53242023202899

>  <r_i_glide_hbond>  (1) 
-1.61434377885551

>  <r_i_glide_metal>  (1) 
-0

>  <r_i_glide_rewards>  (1) 
-2.73492706955778

>  <r_i_glide_evdw>  (1) 
-41.1075439453125

>  <r_i_glide_ecoul>  (1) 
-15.4560861587524

>  <r_i_glide_erotb>  (1) 
0.952447031307137

>  <r_i_glide_esite>  (1) 
0

>  <r_i_glide_emodel>  (1) 
-92.7854046482255

>  <r_i_glide_energy>  (1) 
-56.5636301040649

>  <r_i_glide_einternal>  (1) 
4.60003137588501

>  <i_i_glide_confnum>  (1) 
47

>  <i_i_glide_posenum>  (1) 
19

>  <r_i_glide_eff_state_penalty>  (1) 
-0

>  <r_i_glide_rmsd>  (1) 
0.0874378929499915

>  <s_glide_core_constrain_type>  (1) 
snapped_core_restrain

$$$$
