lig_p38a_2ff
     RDKit          3D

 49 52  0  0  1  0  0  0  0  0999 V2000
   30.8390    9.2940   32.9026 H   0  0  0  0  0  0  0  0  0  0  0  0
   30.1368    9.9257   33.0193 O   0  0  0  0  0  0  0  0  0  0  0  0
   28.9008    9.2478   32.9005 C   0  0  1  0  0  0  0  0  0  0  0  0
   28.7731    8.5872   33.7594 H   0  0  0  0  0  0  0  0  0  0  0  0
   27.7499   10.2582   32.8740 C   0  0  0  0  0  0  0  0  0  0  0  0
   27.8880   10.9840   32.0655 H   0  0  0  0  0  0  0  0  0  0  0  0
   27.7162   10.8307   33.8044 H   0  0  0  0  0  0  0  0  0  0  0  0
   26.4197    9.5322   32.6563 C   0  0  0  0  0  0  0  0  0  0  0  0
   25.6421   10.2879   32.7012 H   0  0  0  0  0  0  0  0  0  0  0  0
   26.2335    8.8542   33.4944 H   0  0  0  0  0  0  0  0  0  0  0  0
   26.4076    8.7419   31.3165 C   0  0  2  0  0  0  0  0  0  0  0  0
   26.5602    9.4350   30.4855 H   0  0  0  0  0  0  0  0  0  0  0  0
   25.1405    8.0466   31.0984 N   0  0  0  0  0  0  0  0  0  0  0  0
   25.1410    7.0352   31.1091 H   0  0  0  0  0  0  0  0  0  0  0  0
   23.9085    8.6635   31.0087 C   0  0  0  0  0  0  0  0  0  0  0  0
   23.8818    9.9923   31.0649 N   0  0  0  0  0  0  0  0  0  0  0  0
   22.6908   10.6187   31.1028 C   0  0  0  0  0  0  0  0  0  0  0  0
   21.5097    9.8646   30.9819 C   0  0  0  0  0  0  0  0  0  0  0  0
   21.6493    8.4685   30.8612 C   0  0  0  0  0  0  0  0  0  0  0  0
   20.7846    7.8361   30.7432 H   0  0  0  0  0  0  0  0  0  0  0  0
   22.8554    7.8599   30.8999 N   0  0  0  0  0  0  0  0  0  0  0  0
   20.2264   10.5601   31.0402 C   0  0  0  0  0  0  0  0  0  0  0  0
   19.3356    9.9642   30.9160 H   0  0  0  0  0  0  0  0  0  0  0  0
   20.1814   11.8983   31.2437 C   0  0  0  0  0  0  0  0  0  0  0  0
   19.0231   12.6365   31.3232 O   0  0  0  0  0  0  0  0  0  0  0  0
   17.7798   12.0730   31.2238 C   0  0  0  0  0  0  0  0  0  0  0  0
   17.2304   11.3051   32.2712 C   0  0  0  0  0  0  0  0  0  0  0  0
   17.9718   11.0370   33.3693 F   0  0  0  0  0  0  0  0  0  0  0  0
   15.9079   10.8309   32.1725 C   0  0  0  0  0  0  0  0  0  0  0  0
   15.4819   10.2368   32.9664 H   0  0  0  0  0  0  0  0  0  0  0  0
   15.1463   11.1062   31.0234 C   0  0  0  0  0  0  0  0  0  0  0  0
   13.8992   10.6039   30.9096 F   0  0  0  0  0  0  0  0  0  0  0  0
   15.6861   11.8843   29.9878 C   0  0  0  0  0  0  0  0  0  0  0  0
   15.0919   12.1044   29.1129 H   0  0  0  0  0  0  0  0  0  0  0  0
   16.9960   12.3804   30.0981 C   0  0  0  0  0  0  0  0  0  0  0  0
   17.4143   12.9866   29.3066 H   0  0  0  0  0  0  0  0  0  0  0  0
   21.4086   12.6901   31.3773 C   0  0  0  0  0  0  0  0  0  0  0  0
   21.3514   13.9050   31.5765 O   0  0  0  0  0  0  0  0  0  0  0  0
   22.5965   12.0328   31.2904 N   0  0  0  0  0  0  0  0  0  0  0  0
   23.8552   12.7779   31.4534 C   0  0  0  0  0  0  0  0  0  0  0  0
   24.4433   12.3441   32.2657 H   0  0  0  0  0  0  0  0  0  0  0  0
   24.4472   12.7118   30.5389 H   0  0  0  0  0  0  0  0  0  0  0  0
   23.7509   13.8376   31.6878 H   0  0  0  0  0  0  0  0  0  0  0  0
   27.5614    7.7267   31.3439 C   0  0  0  0  0  0  0  0  0  0  0  0
   27.3762    6.9826   32.1259 H   0  0  0  0  0  0  0  0  0  0  0  0
   27.5926    7.1834   30.3986 H   0  0  0  0  0  0  0  0  0  0  0  0
   28.9160    8.4065   31.6201 C   0  0  0  0  0  0  0  0  0  0  0  0
   29.1852    9.0323   30.7627 H   0  0  0  0  0  0  0  0  0  0  0  0
   29.6858    7.6451   31.7096 H   0  0  0  0  0  0  0  0  0  0  0  0
  1  2  1  0
  2  3  1  0
  3 47  1  0
  3  4  1  1
  3  5  1  0
  5  6  1  0
  5  7  1  0
  5  8  1  0
  8  9  1  0
  8 10  1  0
  8 11  1  0
 11 12  1  6
 11 13  1  0
 11 44  1  0
 13 14  1  0
 13 15  1  0
 15 21  1  0
 15 16  2  0
 16 17  1  0
 17 39  1  0
 17 18  2  0
 18 19  1  0
 18 22  1  0
 19 20  1  0
 19 21  2  0
 22 23  1  0
 22 24  2  0
 24 25  1  0
 24 37  1  0
 25 26  1  0
 26 35  1  0
 26 27  2  0
 27 28  1  0
 27 29  1  0
 29 30  1  0
 29 31  2  0
 31 32  1  0
 31 33  1  0
 33 34  1  0
 33 35  2  0
 35 36  1  0
 37 38  2  0
 37 39  1  0
 39 40  1  0
 40 41  1  0
 40 42  1  0
 40 43  1  0
 44 45  1  0
 44 46  1  0
 44 47  1  0
 47 48  1  0
 47 49  1  0
M  END
>  <s_m_source_file>  (1) 
ligprep_p38.smi

>  <i_m_source_file_index>  (1) 
7

>  <i_lp_mmshare_version>  (1) 
53161

>  <i_f3d_flags>  (1) 
0

>  <s_epik_input>  (1) 
W09IXVtDQEhdMVtDSDJdW0NIMl1bQ0BIXShbQ0gyXVtDSDJdMSlbTkhdYyhuMiluW2NIXWMoYzIzKVtjSF1jKGMoPU8pbjNbQ0gzXSlPYzRjKEYpW2NIXWMoRilbY0hdW2NIXTQ=

>  <s_epik_cmdline>  (1) 
J2VwaWtfcHl0aG9uJywgJy1waHQnLCAnMC4wJywgJy1waCcsICc3LjQnLCAnLXRuJywgJzgnLCAnLW1hJywgJzUwMCcsICctaW1hZScsICc8aW5maWxlLm1hZT4nLCAnLW9tYWUnLCAnPG91dGZpbGUubWFlPic=

>  <r_lp_tautomer_probability>  (1) 
1

>  <r_epik_Ionization_Penalty>  (1) 
  0.0000

>  <r_epik_Ionization_Penalty_Charging>  (1) 
  0.0000

>  <r_epik_Ionization_Penalty_Neutral>  (1) 
  0.0000

>  <r_epik_State_Penalty>  (1) 
 -0.0000

>  <r_epik_Charging_Adjusted_Penalty>  (1) 
7.39736e-07

>  <i_epik_Tot_Q>  (1) 
0

>  <i_epik_Tot_abs_Q>  (1) 
0

>  <s_epik_Chemistry_Notes>  (1) 
This compound has an imine and may undergo hydrolysis.

>  <s_lp_Force_Field>  (1) 
S-OPLS

>  <r_lp_Energy>  (1) 
55.9827

>  <b_lp_Chiralities_Consistent>  (1) 
1

>  <s_lp_Variant>  (1) 
lig_p38a_2ff-2

>  <s_i_glide_gridfile>  (1) 
glide-grid_P38-3FLY

>  <i_i_glide_lignum>  (1) 
8

>  <i_i_glide_rotatable_bonds>  (1) 
5

>  <r_i_docking_score>  (1) 
-10.4559500380444

>  <r_i_glide_ligand_efficiency>  (1) 
-0.360550001311874

>  <r_i_glide_ligand_efficiency_sa>  (1) 
-1.10772383428818

>  <r_i_glide_ligand_efficiency_ln>  (1) 
-2.3941474186961

>  <r_i_glide_gscore>  (1) 
-10.4559500380444

>  <r_i_glide_lipo>  (1) 
-3.12066007136634

>  <r_i_glide_hbond>  (1) 
-1.18425126886507

>  <r_i_glide_metal>  (1) 
-0

>  <r_i_glide_rewards>  (1) 
-2.72808681246327

>  <r_i_glide_evdw>  (1) 
-42.3405647277832

>  <r_i_glide_ecoul>  (1) 
-11.9379072189331

>  <r_i_glide_erotb>  (1) 
0.484762433879448

>  <r_i_glide_esite>  (1) 
0

>  <r_i_glide_emodel>  (1) 
-81.8620745572305

>  <r_i_glide_energy>  (1) 
-54.2784719467163

>  <r_i_glide_einternal>  (1) 
11.1205234527588

>  <i_i_glide_confnum>  (1) 
3

>  <i_i_glide_posenum>  (1) 
2

>  <r_i_glide_eff_state_penalty>  (1) 
-0

>  <r_i_glide_rmsd>  (1) 
0.0882249234847094

>  <s_glide_core_constrain_type>  (1) 
snapped_core_restrain

$$$$
