lig_p38a_2f
     RDKit          3D

 46 49  0  0  1  0  0  0  0  0999 V2000
   20.7711    7.8341   30.8211 H   0  0  0  0  0  0  0  0  0  0  0  0
   21.6472    8.4576   30.9072 C   0  0  0  0  0  0  0  0  0  0  0  0
   22.8525    7.8424   30.9332 N   0  0  0  0  0  0  0  0  0  0  0  0
   23.9162    8.6347   31.0601 C   0  0  0  0  0  0  0  0  0  0  0  0
   25.1394    8.0081   31.1974 N   0  0  0  0  0  0  0  0  0  0  0  0
   25.1402    6.9936   31.2340 H   0  0  0  0  0  0  0  0  0  0  0  0
   26.4221    8.7072   31.3209 C   0  0  0  0  0  0  0  0  0  0  0  0
   26.4817    9.4017   30.4826 H   0  0  0  0  0  0  0  0  0  0  0  0
   26.5817    9.5042   32.6401 C   0  0  0  0  0  0  0  0  0  0  0  0
   27.4639   10.1405   32.5532 H   0  0  0  0  0  0  0  0  0  0  0  0
   25.7492   10.1802   32.8241 H   0  0  0  0  0  0  0  0  0  0  0  0
   26.7800    8.5773   33.8487 C   0  0  0  0  0  0  0  0  0  0  0  0
   26.9460    9.1623   34.7549 H   0  0  0  0  0  0  0  0  0  0  0  0
   25.9021    7.9544   34.0253 H   0  0  0  0  0  0  0  0  0  0  0  0
   27.9220    7.7595   33.6324 O   0  0  0  0  0  0  0  0  0  0  0  0
   27.7692    6.8989   32.5108 C   0  0  0  0  0  0  0  0  0  0  0  0
   28.6557    6.2715   32.4560 H   0  0  0  0  0  0  0  0  0  0  0  0
   26.9208    6.2360   32.6734 H   0  0  0  0  0  0  0  0  0  0  0  0
   27.5924    7.7171   31.2170 C   0  0  0  0  0  0  0  0  0  0  0  0
   27.4567    7.0471   30.3681 H   0  0  0  0  0  0  0  0  0  0  0  0
   28.5076    8.2795   31.0318 H   0  0  0  0  0  0  0  0  0  0  0  0
   23.9016    9.9619   31.1275 N   0  0  0  0  0  0  0  0  0  0  0  0
   22.7161   10.6018   31.1516 C   0  0  0  0  0  0  0  0  0  0  0  0
   21.5249    9.8565   31.0392 C   0  0  0  0  0  0  0  0  0  0  0  0
   20.2517   10.5684   31.1066 C   0  0  0  0  0  0  0  0  0  0  0  0
   19.3518    9.9787   31.0023 H   0  0  0  0  0  0  0  0  0  0  0  0
   20.2176   11.9069   31.3032 C   0  0  0  0  0  0  0  0  0  0  0  0
   19.0596   12.6470   31.3913 O   0  0  0  0  0  0  0  0  0  0  0  0
   17.8192   12.0786   31.3092 C   0  0  0  0  0  0  0  0  0  0  0  0
   17.2701   11.3734   32.4013 C   0  0  0  0  0  0  0  0  0  0  0  0
   17.8520   11.2304   33.2980 H   0  0  0  0  0  0  0  0  0  0  0  0
   15.9582   10.8674   32.3200 C   0  0  0  0  0  0  0  0  0  0  0  0
   15.5300   10.3195   33.1474 H   0  0  0  0  0  0  0  0  0  0  0  0
   15.2027   11.0524   31.1520 C   0  0  0  0  0  0  0  0  0  0  0  0
   14.2087   10.6348   31.0769 H   0  0  0  0  0  0  0  0  0  0  0  0
   15.7546   11.7512   30.0632 C   0  0  0  0  0  0  0  0  0  0  0  0
   15.0654   11.8216   28.9109 F   0  0  0  0  0  0  0  0  0  0  0  0
   17.0495   12.2918   30.1499 C   0  0  0  0  0  0  0  0  0  0  0  0
   17.4667   12.8360   29.3155 H   0  0  0  0  0  0  0  0  0  0  0  0
   21.4494   12.6921   31.4132 C   0  0  0  0  0  0  0  0  0  0  0  0
   21.4026   13.9117   31.5773 O   0  0  0  0  0  0  0  0  0  0  0  0
   22.6322   12.0200   31.3306 N   0  0  0  0  0  0  0  0  0  0  0  0
   23.8986   12.7603   31.4578 C   0  0  0  0  0  0  0  0  0  0  0  0
   24.5120   12.3204   32.2433 H   0  0  0  0  0  0  0  0  0  0  0  0
   24.4582   12.7058   30.5221 H   0  0  0  0  0  0  0  0  0  0  0  0
   23.8020   13.8168   31.7100 H   0  0  0  0  0  0  0  0  0  0  0  0
  1  2  1  0
  2 24  2  0
  2  3  1  0
  3  4  2  0
  4  5  1  0
  4 22  1  0
  5  6  1  0
  5  7  1  0
  7 19  1  0
  7  8  1  0
  7  9  1  0
  9 10  1  0
  9 11  1  0
  9 12  1  0
 12 13  1  0
 12 14  1  0
 12 15  1  0
 15 16  1  0
 16 17  1  0
 16 18  1  0
 16 19  1  0
 19 20  1  0
 19 21  1  0
 22 23  2  0
 23 42  1  0
 23 24  1  0
 24 25  1  0
 25 26  1  0
 25 27  2  0
 27 28  1  0
 27 40  1  0
 28 29  1  0
 29 38  1  0
 29 30  2  0
 30 31  1  0
 30 32  1  0
 32 33  1  0
 32 34  2  0
 34 35  1  0
 34 36  1  0
 36 37  1  0
 36 38  2  0
 38 39  1  0
 40 41  2  0
 40 42  1  0
 42 43  1  0
 43 44  1  0
 43 45  1  0
 43 46  1  0
M  END
>  <s_m_source_file>  (1) 
ligprep_p38.smi

>  <i_m_source_file_index>  (1) 
6

>  <i_lp_mmshare_version>  (1) 
53161

>  <i_f3d_flags>  (1) 
0

>  <s_epik_input>  (1) 
W0NIMl0xW0NIMl1PW0NIMl1bQ0gyXVtDSF0xW05IXWMobjIpbltjSF1jKGMyMylbY0hdYyhjKD1PKW4zW0NIM10pT2M0W2NIXVtjSF1bY0hdYyhGKVtjSF00

>  <s_epik_cmdline>  (1) 
J2VwaWtfcHl0aG9uJywgJy1waHQnLCAnMC4wJywgJy1waCcsICc3LjQnLCAnLXRuJywgJzgnLCAnLW1hJywgJzUwMCcsICctaW1hZScsICc8aW5maWxlLm1hZT4nLCAnLW9tYWUnLCAnPG91dGZpbGUubWFlPic=

>  <r_lp_tautomer_probability>  (1) 
1

>  <r_epik_Ionization_Penalty>  (1) 
  0.0000

>  <r_epik_Ionization_Penalty_Charging>  (1) 
  0.0000

>  <r_epik_Ionization_Penalty_Neutral>  (1) 
  0.0000

>  <r_epik_State_Penalty>  (1) 
 -0.0000

>  <r_epik_Charging_Adjusted_Penalty>  (1) 
4.87626e-06

>  <i_epik_Tot_Q>  (1) 
0

>  <i_epik_Tot_abs_Q>  (1) 
0

>  <s_epik_Chemistry_Notes>  (1) 
This compound has an imine and may undergo hydrolysis.

>  <s_lp_Force_Field>  (1) 
S-OPLS

>  <r_lp_Energy>  (1) 
52.8768

>  <b_lp_Chiralities_Consistent>  (1) 
1

>  <s_lp_Variant>  (1) 
lig_p38a_2f-1

>  <s_i_glide_gridfile>  (1) 
glide-grid_P38-3FLY

>  <i_i_glide_lignum>  (1) 
6

>  <i_i_glide_rotatable_bonds>  (1) 
4

>  <r_i_docking_score>  (1) 
-10.0371407745221

>  <r_i_glide_ligand_efficiency>  (1) 
-0.37174595461193

>  <r_i_glide_ligand_efficiency_sa>  (1) 
-1.11523786261058

>  <r_i_glide_ligand_efficiency_ln>  (1) 
-2.33648089711049

>  <r_i_glide_gscore>  (1) 
-10.0371407745221

>  <r_i_glide_lipo>  (1) 
-3.06250983967572

>  <r_i_glide_hbond>  (1) 
-1.2439411306464

>  <r_i_glide_metal>  (1) 
-0

>  <r_i_glide_rewards>  (1) 
-2.49196436114922

>  <r_i_glide_evdw>  (1) 
-39.9894104003906

>  <r_i_glide_ecoul>  (1) 
-12.0118055343628

>  <r_i_glide_erotb>  (1) 
0.562515907123166

>  <r_i_glide_esite>  (1) 
0

>  <r_i_glide_emodel>  (1) 
-77.6337015383243

>  <r_i_glide_energy>  (1) 
-52.0012159347534

>  <r_i_glide_einternal>  (1) 
2.48509740829468

>  <i_i_glide_confnum>  (1) 
5

>  <i_i_glide_posenum>  (1) 
3

>  <r_i_glide_eff_state_penalty>  (1) 
-0

>  <r_i_glide_rmsd>  (1) 
0.0973446240877075

>  <s_glide_core_constrain_type>  (1) 
snapped_core_restrain

$$$$
