lig_p38a_2g
     RDKit          3D

 46 49  0  0  1  0  0  0  0  0999 V2000
   20.7392    7.8362   30.7127 H   0  0  0  0  0  0  0  0  0  0  0  0
   21.6150    8.4565   30.8563 C   0  0  0  0  0  0  0  0  0  0  0  0
   22.8120    7.8328   30.9096 N   0  0  0  0  0  0  0  0  0  0  0  0
   23.8749    8.6101   31.0976 C   0  0  0  0  0  0  0  0  0  0  0  0
   25.0983    7.9706   31.1818 N   0  0  0  0  0  0  0  0  0  0  0  0
   25.1150    6.9568   31.1434 H   0  0  0  0  0  0  0  0  0  0  0  0
   26.3674    8.6693   31.2754 C   0  0  0  0  0  0  0  0  0  0  0  0
   26.2262    9.5882   31.8471 H   0  0  0  0  0  0  0  0  0  0  0  0
   27.3967    7.8227   32.0321 C   0  0  0  0  0  0  0  0  0  0  0  0
   27.0133    7.5288   33.0087 H   0  0  0  0  0  0  0  0  0  0  0  0
   27.6049    6.9007   31.4845 H   0  0  0  0  0  0  0  0  0  0  0  0
   28.6857    8.6370   32.1910 C   0  0  0  0  0  0  0  0  0  0  0  0
   28.5151    9.5167   32.8142 H   0  0  0  0  0  0  0  0  0  0  0  0
   29.4453    8.0323   32.6903 H   0  0  0  0  0  0  0  0  0  0  0  0
   29.1507    9.0398   30.9104 O   0  0  0  0  0  0  0  0  0  0  0  0
   28.1974    9.7656   30.1406 C   0  0  0  0  0  0  0  0  0  0  0  0
   28.0644   10.7666   30.5422 H   0  0  0  0  0  0  0  0  0  0  0  0
   28.5478    9.8219   29.1449 H   0  0  0  0  0  0  0  0  0  0  0  0
   26.8954    9.0261   29.9161 C   0  0  0  0  0  0  0  0  0  0  0  0
   27.0399    8.1276   29.3124 H   0  0  0  0  0  0  0  0  0  0  0  0
   26.1989    9.6674   29.3744 H   0  0  0  0  0  0  0  0  0  0  0  0
   23.8641    9.9322   31.2288 N   0  0  0  0  0  0  0  0  0  0  0  0
   22.6797   10.5811   31.2049 C   0  0  0  0  0  0  0  0  0  0  0  0
   21.4922    9.8480   31.0195 C   0  0  0  0  0  0  0  0  0  0  0  0
   20.2193   10.5634   31.0470 C   0  0  0  0  0  0  0  0  0  0  0  0
   19.3234    9.9780   30.9086 H   0  0  0  0  0  0  0  0  0  0  0  0
   20.1800   11.8949   31.2623 C   0  0  0  0  0  0  0  0  0  0  0  0
   19.0200   12.6363   31.3120 O   0  0  0  0  0  0  0  0  0  0  0  0
   17.7756   12.0592   31.2578 C   0  0  0  0  0  0  0  0  0  0  0  0
   17.2661   11.2961   32.3271 C   0  0  0  0  0  0  0  0  0  0  0  0
   18.0427   11.0360   33.4055 F   0  0  0  0  0  0  0  0  0  0  0  0
   15.9418   10.8162   32.2832 C   0  0  0  0  0  0  0  0  0  0  0  0
   15.5547   10.2360   33.1071 H   0  0  0  0  0  0  0  0  0  0  0  0
   15.1367   11.0713   31.1537 C   0  0  0  0  0  0  0  0  0  0  0  0
   14.1274   10.6818   31.1151 H   0  0  0  0  0  0  0  0  0  0  0  0
   15.6448   11.8342   30.0876 C   0  0  0  0  0  0  0  0  0  0  0  0
   15.0233   12.0407   29.2287 H   0  0  0  0  0  0  0  0  0  0  0  0
   16.9575   12.3407   30.1478 C   0  0  0  0  0  0  0  0  0  0  0  0
   17.3405   12.9413   29.3366 H   0  0  0  0  0  0  0  0  0  0  0  0
   21.4136   12.6756   31.4226 C   0  0  0  0  0  0  0  0  0  0  0  0
   21.3657   13.8913   31.5830 O   0  0  0  0  0  0  0  0  0  0  0  0
   22.5968   11.9948   31.3870 N   0  0  0  0  0  0  0  0  0  0  0  0
   23.8645   12.7221   31.5620 C   0  0  0  0  0  0  0  0  0  0  0  0
   24.4979   12.5891   30.6831 H   0  0  0  0  0  0  0  0  0  0  0  0
   23.7671   13.7949   31.7247 H   0  0  0  0  0  0  0  0  0  0  0  0
   24.4030   12.3238   32.4227 H   0  0  0  0  0  0  0  0  0  0  0  0
  1  2  1  0
  2 24  2  0
  2  3  1  0
  3  4  2  0
  4  5  1  0
  4 22  1  0
  5  6  1  0
  5  7  1  0
  7 19  1  0
  7  8  1  0
  7  9  1  0
  9 10  1  0
  9 11  1  0
  9 12  1  0
 12 13  1  0
 12 14  1  0
 12 15  1  0
 15 16  1  0
 16 17  1  0
 16 18  1  0
 16 19  1  0
 19 20  1  0
 19 21  1  0
 22 23  2  0
 23 42  1  0
 23 24  1  0
 24 25  1  0
 25 26  1  0
 25 27  2  0
 27 28  1  0
 27 40  1  0
 28 29  1  0
 29 38  1  0
 29 30  2  0
 30 31  1  0
 30 32  1  0
 32 33  1  0
 32 34  2  0
 34 35  1  0
 34 36  1  0
 36 37  1  0
 36 38  2  0
 38 39  1  0
 40 41  2  0
 40 42  1  0
 42 43  1  0
 43 44  1  0
 43 45  1  0
 43 46  1  0
M  END
>  <s_m_source_file>  (1) 
ligprep_p38.smi

>  <i_m_source_file_index>  (1) 
8

>  <i_lp_mmshare_version>  (1) 
53161

>  <i_f3d_flags>  (1) 
0

>  <s_epik_input>  (1) 
W0NIMl0xW0NIMl1PW0NIMl1bQ0gyXVtDSF0xW05IXWMobjIpbltjSF1jKGMyMylbY0hdYyhjKD1PKW4zW0NIM10pT2M0YyhGKVtjSF1bY0hdW2NIXVtjSF00

>  <s_epik_cmdline>  (1) 
J2VwaWtfcHl0aG9uJywgJy1waHQnLCAnMC4wJywgJy1waCcsICc3LjQnLCAnLXRuJywgJzgnLCAnLW1hJywgJzUwMCcsICctaW1hZScsICc8aW5maWxlLm1hZT4nLCAnLW9tYWUnLCAnPG91dGZpbGUubWFlPic=

>  <r_lp_tautomer_probability>  (1) 
1

>  <r_epik_Ionization_Penalty>  (1) 
  0.0000

>  <r_epik_Ionization_Penalty_Charging>  (1) 
  0.0000

>  <r_epik_Ionization_Penalty_Neutral>  (1) 
  0.0000

>  <r_epik_State_Penalty>  (1) 
 -0.0000

>  <r_epik_Charging_Adjusted_Penalty>  (1) 
1.82845e-06

>  <i_epik_Tot_Q>  (1) 
0

>  <i_epik_Tot_abs_Q>  (1) 
0

>  <s_epik_Chemistry_Notes>  (1) 
This compound has an imine and may undergo hydrolysis.

>  <s_lp_Force_Field>  (1) 
S-OPLS

>  <r_lp_Energy>  (1) 
54.871

>  <b_lp_Chiralities_Consistent>  (1) 
1

>  <s_lp_Variant>  (1) 
lig_p38a_2g-1

>  <s_i_glide_gridfile>  (1) 
glide-grid_P38-3FLY

>  <i_i_glide_lignum>  (1) 
9

>  <i_i_glide_rotatable_bonds>  (1) 
4

>  <r_i_docking_score>  (1) 
-10.6354157408849

>  <r_i_glide_ligand_efficiency>  (1) 
-0.393904286699439

>  <r_i_glide_ligand_efficiency_sa>  (1) 
-1.18171285880007

>  <r_i_glide_ligand_efficiency_ln>  (1) 
-2.47574944594605

>  <r_i_glide_gscore>  (1) 
-10.6354157408849

>  <r_i_glide_lipo>  (1) 
-3.57802289370373

>  <r_i_glide_hbond>  (1) 
-1.24799204155377

>  <r_i_glide_metal>  (1) 
-0

>  <r_i_glide_rewards>  (1) 
-2.49473856829556

>  <r_i_glide_evdw>  (1) 
-40.36865234375

>  <r_i_glide_ecoul>  (1) 
-12.3916368484497

>  <r_i_glide_erotb>  (1) 
0.562515907123166

>  <r_i_glide_esite>  (1) 
0

>  <r_i_glide_emodel>  (1) 
-86.3684819702609

>  <r_i_glide_energy>  (1) 
-52.7602891921997

>  <r_i_glide_einternal>  (1) 
0.254750430583954

>  <i_i_glide_confnum>  (1) 
1

>  <i_i_glide_posenum>  (1) 
3

>  <r_i_glide_eff_state_penalty>  (1) 
-0

>  <r_i_glide_rmsd>  (1) 
0.0909915051428505

>  <s_glide_core_constrain_type>  (1) 
snapped_core_restrain

$$$$
