lig_p38a_2i
     RDKit          3D

 48 51  0  0  1  0  0  0  0  0999 V2000
   20.8447    7.8306   30.7453 H   0  0  0  0  0  0  0  0  0  0  0  0
   21.7191    8.4549   30.8497 C   0  0  0  0  0  0  0  0  0  0  0  0
   22.9194    7.8367   30.8972 N   0  0  0  0  0  0  0  0  0  0  0  0
   23.9821    8.6240   31.0437 C   0  0  0  0  0  0  0  0  0  0  0  0
   25.1995    7.9894   31.1875 N   0  0  0  0  0  0  0  0  0  0  0  0
   25.2022    6.9754   31.1879 H   0  0  0  0  0  0  0  0  0  0  0  0
   26.4836    8.6825   31.3037 C   0  0  0  0  0  0  0  0  0  0  0  0
   26.5521    9.3638   30.4539 H   0  0  0  0  0  0  0  0  0  0  0  0
   26.6453    9.4992   32.6104 C   0  0  0  0  0  0  0  0  0  0  0  0
   27.5330   10.1273   32.5249 H   0  0  0  0  0  0  0  0  0  0  0  0
   25.8231   10.1900   32.7768 H   0  0  0  0  0  0  0  0  0  0  0  0
   26.8082    8.5934   33.8395 C   0  0  0  0  0  0  0  0  0  0  0  0
   26.9596    9.1996   34.7326 H   0  0  0  0  0  0  0  0  0  0  0  0
   25.9120    7.9942   34.0079 H   0  0  0  0  0  0  0  0  0  0  0  0
   27.9409    7.7542   33.6583 O   0  0  0  0  0  0  0  0  0  0  0  0
   27.8023    6.8810   32.5446 C   0  0  0  0  0  0  0  0  0  0  0  0
   28.6806    6.2375   32.5083 H   0  0  0  0  0  0  0  0  0  0  0  0
   26.9470    6.2288   32.7070 H   0  0  0  0  0  0  0  0  0  0  0  0
   27.6533    7.6927   31.2382 C   0  0  0  0  0  0  0  0  0  0  0  0
   27.5350    7.0349   30.3802 H   0  0  0  0  0  0  0  0  0  0  0  0
   28.5693    8.2557   31.0685 H   0  0  0  0  0  0  0  0  0  0  0  0
   23.9697    9.9501   31.1237 N   0  0  0  0  0  0  0  0  0  0  0  0
   22.7812   10.5903   31.1514 C   0  0  0  0  0  0  0  0  0  0  0  0
   21.5957    9.8497   31.0023 C   0  0  0  0  0  0  0  0  0  0  0  0
   20.3223   10.5525   31.0849 C   0  0  0  0  0  0  0  0  0  0  0  0
   19.4186    9.9705   30.9693 H   0  0  0  0  0  0  0  0  0  0  0  0
   20.2623   11.8708   31.3498 C   0  0  0  0  0  0  0  0  0  0  0  0
   18.9248   12.5142   31.5150 C   0  0  0  0  0  0  0  0  0  0  0  0
   18.9918   13.4553   32.0561 H   0  0  0  0  0  0  0  0  0  0  0  0
   18.3034   11.8603   32.1299 H   0  0  0  0  0  0  0  0  0  0  0  0
   18.2662   12.7289   30.1822 C   0  0  0  0  0  0  0  0  0  0  0  0
   16.8652   12.7063   30.1389 C   0  0  0  0  0  0  0  0  0  0  0  0
   16.2851   12.4311   31.0083 H   0  0  0  0  0  0  0  0  0  0  0  0
   16.2167   13.0893   28.9632 C   0  0  0  0  0  0  0  0  0  0  0  0
   15.1443   13.0367   28.9352 H   0  0  0  0  0  0  0  0  0  0  0  0
   16.9626   13.5201   27.8484 C   0  0  0  0  0  0  0  0  0  0  0  0
   16.5449   13.8874   26.9300 H   0  0  0  0  0  0  0  0  0  0  0  0
   18.3482   13.4363   27.8597 C   0  0  0  0  0  0  0  0  0  0  0  0
   18.9074   13.8296   27.0181 H   0  0  0  0  0  0  0  0  0  0  0  0
   19.0141   13.0361   29.0123 C   0  0  0  0  0  0  0  0  0  0  0  0
   20.3663   13.0351   28.9694 F   0  0  0  0  0  0  0  0  0  0  0  0
   21.4951   12.6630   31.5080 C   0  0  0  0  0  0  0  0  0  0  0  0
   21.4513   13.8763   31.7097 O   0  0  0  0  0  0  0  0  0  0  0  0
   22.6837   12.0004   31.3850 N   0  0  0  0  0  0  0  0  0  0  0  0
   23.9516   12.7419   31.5000 C   0  0  0  0  0  0  0  0  0  0  0  0
   24.5775   12.3047   32.2791 H   0  0  0  0  0  0  0  0  0  0  0  0
   24.5024   12.6833   30.5589 H   0  0  0  0  0  0  0  0  0  0  0  0
   23.8493   13.7995   31.7472 H   0  0  0  0  0  0  0  0  0  0  0  0
  1  2  1  0
  2 24  2  0
  2  3  1  0
  3  4  2  0
  4  5  1  0
  4 22  1  0
  5  6  1  0
  5  7  1  0
  7 19  1  0
  7  8  1  0
  7  9  1  0
  9 10  1  0
  9 11  1  0
  9 12  1  0
 12 13  1  0
 12 14  1  0
 12 15  1  0
 15 16  1  0
 16 17  1  0
 16 18  1  0
 16 19  1  0
 19 20  1  0
 19 21  1  0
 22 23  2  0
 23 44  1  0
 23 24  1  0
 24 25  1  0
 25 26  1  0
 25 27  2  0
 27 28  1  0
 27 42  1  0
 28 29  1  0
 28 30  1  0
 28 31  1  0
 31 40  1  0
 31 32  2  0
 32 33  1  0
 32 34  1  0
 34 35  1  0
 34 36  2  0
 36 37  1  0
 36 38  1  0
 38 39  1  0
 38 40  2  0
 40 41  1  0
 42 43  2  0
 42 44  1  0
 44 45  1  0
 45 46  1  0
 45 47  1  0
 45 48  1  0
M  END
>  <s_m_source_file>  (1) 
ligprep_p38.smi

>  <i_m_source_file_index>  (1) 
11

>  <i_lp_mmshare_version>  (1) 
53161

>  <i_f3d_flags>  (1) 
0

>  <s_epik_input>  (1) 
W0NIMl0xW0NIMl1PW0NIMl1bQ0gyXVtDSF0xW05IXWMobjIpbltjSF1jKGMyMylbY0hdYyhjKD1PKW4zW0NIM10pW0NIMl1jNFtjSF1bY0hdW2NIXVtjSF1jNEY=

>  <s_epik_cmdline>  (1) 
J2VwaWtfcHl0aG9uJywgJy1waHQnLCAnMC4wJywgJy1waCcsICc3LjQnLCAnLXRuJywgJzgnLCAnLW1hJywgJzUwMCcsICctaW1hZScsICc8aW5maWxlLm1hZT4nLCAnLW9tYWUnLCAnPG91dGZpbGUubWFlPic=

>  <r_lp_tautomer_probability>  (1) 
1

>  <r_epik_Ionization_Penalty>  (1) 
  0.0000

>  <r_epik_Ionization_Penalty_Charging>  (1) 
  0.0000

>  <r_epik_Ionization_Penalty_Neutral>  (1) 
  0.0000

>  <r_epik_State_Penalty>  (1) 
 -0.0000

>  <r_epik_Charging_Adjusted_Penalty>  (1) 
1.24485e-06

>  <i_epik_Tot_Q>  (1) 
0

>  <i_epik_Tot_abs_Q>  (1) 
0

>  <s_epik_Chemistry_Notes>  (1) 
This compound has an imine and may undergo hydrolysis.

>  <s_lp_Force_Field>  (1) 
S-OPLS

>  <r_lp_Energy>  (1) 
35.3251

>  <b_lp_Chiralities_Consistent>  (1) 
1

>  <s_lp_Variant>  (1) 
lig_p38a_2i-1

>  <s_i_glide_gridfile>  (1) 
glide-grid_P38-3FLY

>  <i_i_glide_lignum>  (1) 
12

>  <i_i_glide_rotatable_bonds>  (1) 
4

>  <r_i_docking_score>  (1) 
-7.95570373716505

>  <r_i_glide_ligand_efficiency>  (1) 
-0.294655693969076

>  <r_i_glide_ligand_efficiency_sa>  (1) 
-0.883967080936091

>  <r_i_glide_ligand_efficiency_ln>  (1) 
-1.8519566699852

>  <r_i_glide_gscore>  (1) 
-7.95570373716505

>  <r_i_glide_lipo>  (1) 
-2.22941860625005

>  <r_i_glide_hbond>  (1) 
-1.23973205643157

>  <r_i_glide_metal>  (1) 
-0

>  <r_i_glide_rewards>  (1) 
-2.18529024194903

>  <r_i_glide_evdw>  (1) 
-26.0674076080322

>  <r_i_glide_ecoul>  (1) 
-10.2946882247925

>  <r_i_glide_erotb>  (1) 
0.5679100821473

>  <r_i_glide_esite>  (1) 
-0.0215993005612209

>  <r_i_glide_emodel>  (1) 
-43.3935726496053

>  <r_i_glide_energy>  (1) 
-36.3620958328247

>  <r_i_glide_einternal>  (1) 
5.28581857681274

>  <i_i_glide_confnum>  (1) 
20

>  <i_i_glide_posenum>  (1) 
13

>  <r_i_glide_eff_state_penalty>  (1) 
-0

>  <r_i_glide_rmsd>  (1) 
0.118104685237939

>  <s_glide_core_constrain_type>  (1) 
snapped_core_restrain

$$$$
