lig_p38a_3fmh
     RDKit          3D

 46 49  0  0  1  0  0  0  0  0999 V2000
   31.2464   10.4375   31.8102 H   0  0  0  0  0  0  0  0  0  0  0  0
   30.4611    9.7621   32.1179 C   0  0  0  0  0  0  0  0  0  0  0  0
   29.4644    9.4235   31.3198 N   0  0  0  0  0  0  0  0  0  0  0  0
   28.7879    8.5802   32.1286 N   0  0  0  0  0  0  0  0  0  0  0  0
   27.5955    7.8362   31.7223 C   0  0  0  0  0  0  0  0  0  0  0  0
   27.8862    7.0847   30.9884 H   0  0  0  0  0  0  0  0  0  0  0  0
   27.2269    7.2835   32.5891 H   0  0  0  0  0  0  0  0  0  0  0  0
   26.4729    8.7297   31.1540 C   0  0  2  0  0  0  0  0  0  0  0  0
   26.3612    9.5719   31.8386 H   0  0  0  0  0  0  0  0  0  0  0  0
   25.1985    8.0015   31.1345 N   0  0  0  0  0  0  0  0  0  0  0  0
   25.2140    6.9873   31.0691 H   0  0  0  0  0  0  0  0  0  0  0  0
   23.9636    8.6249   31.0956 C   0  0  0  0  0  0  0  0  0  0  0  0
   22.9044    7.8380   30.9093 N   0  0  0  0  0  0  0  0  0  0  0  0
   21.7008    8.4536   30.8786 C   0  0  0  0  0  0  0  0  0  0  0  0
   20.8294    7.8356   30.7295 H   0  0  0  0  0  0  0  0  0  0  0  0
   21.5719    9.8454   31.0598 C   0  0  0  0  0  0  0  0  0  0  0  0
   22.7539   10.5842   31.2547 C   0  0  0  0  0  0  0  0  0  0  0  0
   23.9428    9.9462   31.2572 N   0  0  0  0  0  0  0  0  0  0  0  0
   22.6608   11.9988   31.4606 N   0  0  0  0  0  0  0  0  0  0  0  0
   23.9207   12.7384   31.6536 C   0  0  0  0  0  0  0  0  0  0  0  0
   23.8021   13.7552   32.0345 H   0  0  0  0  0  0  0  0  0  0  0  0
   24.5654   12.2305   32.3733 H   0  0  0  0  0  0  0  0  0  0  0  0
   24.4679   12.7996   30.7106 H   0  0  0  0  0  0  0  0  0  0  0  0
   21.4771   12.6785   31.4584 C   0  0  0  0  0  0  0  0  0  0  0  0
   21.4241   13.9053   31.5862 O   0  0  0  0  0  0  0  0  0  0  0  0
   20.2530   11.8919   31.2864 C   0  0  0  0  0  0  0  0  0  0  0  0
   19.0959   12.6373   31.3148 O   0  0  0  0  0  0  0  0  0  0  0  0
   17.8461   12.0847   31.2263 C   0  0  0  0  0  0  0  0  0  0  0  0
   17.2982   11.3115   32.2716 C   0  0  0  0  0  0  0  0  0  0  0  0
   18.0423   11.0329   33.3640 F   0  0  0  0  0  0  0  0  0  0  0  0
   15.9730   10.8378   32.1766 C   0  0  0  0  0  0  0  0  0  0  0  0
   15.5530   10.2371   32.9702 H   0  0  0  0  0  0  0  0  0  0  0  0
   15.2089   11.1242   31.0308 C   0  0  0  0  0  0  0  0  0  0  0  0
   13.9561   10.6362   30.9090 F   0  0  0  0  0  0  0  0  0  0  0  0
   15.7461   11.9125   30.0002 C   0  0  0  0  0  0  0  0  0  0  0  0
   15.1481   12.1371   29.1296 H   0  0  0  0  0  0  0  0  0  0  0  0
   17.0565   12.4106   30.1096 C   0  0  0  0  0  0  0  0  0  0  0  0
   17.4642   13.0327   29.3251 H   0  0  0  0  0  0  0  0  0  0  0  0
   20.2956   10.5574   31.0814 C   0  0  0  0  0  0  0  0  0  0  0  0
   19.4015    9.9704   30.9325 H   0  0  0  0  0  0  0  0  0  0  0  0
   26.7942    9.2946   29.7520 C   0  0  0  0  0  0  0  0  0  0  0  0
   27.6757    9.9345   29.7307 H   0  0  0  0  0  0  0  0  0  0  0  0
   26.9482    8.4892   29.0328 H   0  0  0  0  0  0  0  0  0  0  0  0
   25.9693    9.9047   29.3754 H   0  0  0  0  0  0  0  0  0  0  0  0
   29.3511    8.4291   33.3462 N   0  0  0  0  0  0  0  0  0  0  0  0
   30.4048    9.1815   33.3492 N   0  0  0  0  0  0  0  0  0  0  0  0
  1  2  1  0
  2 46  1  0
  2  3  2  0
  3  4  1  0
  4  5  1  0
  4 45  1  0
  5  6  1  0
  5  7  1  0
  5  8  1  0
  8  9  1  1
  8 10  1  0
  8 41  1  0
 10 11  1  0
 10 12  1  0
 12 18  1  0
 12 13  2  0
 13 14  1  0
 14 15  1  0
 14 16  2  0
 16 39  1  0
 16 17  1  0
 17 18  2  0
 17 19  1  0
 19 20  1  0
 19 24  1  0
 20 21  1  0
 20 22  1  0
 20 23  1  0
 24 25  2  0
 24 26  1  0
 26 27  1  0
 26 39  2  0
 27 28  1  0
 28 37  1  0
 28 29  2  0
 29 30  1  0
 29 31  1  0
 31 32  1  0
 31 33  2  0
 33 34  1  0
 33 35  1  0
 35 36  1  0
 35 37  2  0
 37 38  1  0
 39 40  1  0
 41 42  1  0
 41 43  1  0
 41 44  1  0
 45 46  2  0
M  END
>  <s_m_source_file>  (1) 
ligprep_p38.smi

>  <i_m_source_file_index>  (1) 
33

>  <i_lp_mmshare_version>  (1) 
53161

>  <i_f3d_flags>  (1) 
0

>  <s_epik_input>  (1) 
bjFuW2NIXW5uMVtDSDJdW0NAQEhdKFtDSDNdKVtOSF1jKG5bY0hdMiluYyhjMjMpbihbQ0gzXSljKD1PKWMoW2NIXTMpT2M0YyhGKVtjSF1jKEYpW2NIXVtjSF00

>  <s_epik_cmdline>  (1) 
J2VwaWtfcHl0aG9uJywgJy1waHQnLCAnMC4wJywgJy1waCcsICc3LjQnLCAnLXRuJywgJzgnLCAnLW1hJywgJzUwMCcsICctaW1hZScsICc8aW5maWxlLm1hZT4nLCAnLW9tYWUnLCAnPG91dGZpbGUubWFlPic=

>  <r_lp_tautomer_probability>  (1) 
1

>  <r_epik_Ionization_Penalty>  (1) 
  0.0000

>  <r_epik_Ionization_Penalty_Charging>  (1) 
  0.0000

>  <r_epik_Ionization_Penalty_Neutral>  (1) 
  0.0000

>  <r_epik_State_Penalty>  (1) 
 -0.0000

>  <r_epik_Charging_Adjusted_Penalty>  (1) 
8.89828e-07

>  <i_epik_Tot_Q>  (1) 
0

>  <i_epik_Tot_abs_Q>  (1) 
0

>  <s_epik_Chemistry_Notes>  (1) 
This compound has an imine and may undergo hydrolysis.

>  <s_lp_Force_Field>  (1) 
S-OPLS

>  <r_lp_Energy>  (1) 
48.9768

>  <b_lp_Chiralities_Consistent>  (1) 
1

>  <s_lp_Variant>  (1) 
lig_p38a_3fmh-1

>  <s_i_glide_gridfile>  (1) 
glide-grid_P38-3FLY

>  <i_i_glide_lignum>  (1) 
34

>  <i_i_glide_rotatable_bonds>  (1) 
6

>  <r_i_docking_score>  (1) 
-11.1256368999447

>  <r_i_glide_ligand_efficiency>  (1) 
-0.370854563331491

>  <r_i_glide_ligand_efficiency_sa>  (1) 
-1.1523313528585

>  <r_i_glide_ligand_efficiency_ln>  (1) 
-2.52786592719071

>  <r_i_glide_gscore>  (1) 
-11.1256368999447

>  <r_i_glide_lipo>  (1) 
-3.31014959415254

>  <r_i_glide_hbond>  (1) 
-1.2805330489751

>  <r_i_glide_metal>  (1) 
-0

>  <r_i_glide_rewards>  (1) 
-2.87829926466776

>  <r_i_glide_evdw>  (1) 
-47.8958435058594

>  <r_i_glide_ecoul>  (1) 
-12.9592800140381

>  <r_i_glide_erotb>  (1) 
0.689692625375434

>  <r_i_glide_esite>  (1) 
-0.00766344012609656

>  <r_i_glide_emodel>  (1) 
-100.500874687747

>  <r_i_glide_energy>  (1) 
-60.8551235198975

>  <r_i_glide_einternal>  (1) 
0.711492657661438

>  <i_i_glide_confnum>  (1) 
4

>  <i_i_glide_posenum>  (1) 
3

>  <r_i_glide_eff_state_penalty>  (1) 
-0

>  <r_i_glide_rmsd>  (1) 
0.0985007757986065

>  <s_glide_core_constrain_type>  (1) 
snapped_core_restrain

$$$$
