lig_29
  xed2sdf           3D
 
 41 43  0  0  0  0  0  0  0  0999 V2000
   65.4242  -32.2038   26.8360 O   0  0  0  0  0  0  0  0  0  0  0  0
   66.6015  -31.3802   26.7668 C   0  0  0  0  0  0  0  0  0  0  0  0
   67.0122  -31.2278   25.2826 C   0  0  0  0  0  0  0  0  0  0  0  0
   67.6921  -32.5004   24.7308 C   0  0  0  0  0  0  0  0  0  0  0  0
   68.9365  -32.8356   25.5100 C   0  0  0  0  0  0  0  0  0  0  0  0
   70.1677  -32.1712   25.3594 C   0  0  0  0  0  0  0  0  0  0  0  0
   71.0689  -32.7302   26.3174 N   0  0  0  0  0  0  0  0  0  0  0  0
   70.3819  -33.6982   27.0083 C   0  0  0  0  0  0  0  0  0  0  0  0
   69.1079  -33.8080   26.5520 C   0  0  0  0  0  0  0  0  0  0  0  0
   68.2206  -34.7568   27.0744 C   0  0  0  0  0  0  0  0  0  0  0  0
   68.6914  -35.6013   28.1046 C   0  0  0  0  0  0  0  0  0  0  0  0
   70.0171  -35.4700   28.5882 C   0  0  0  0  0  0  0  0  0  0  0  0
   70.8835  -34.5034   28.0347 C   0  0  0  0  0  0  0  0  0  0  0  0
   70.4527  -31.0705   24.3710 C   0  0  0  0  0  0  0  0  0  0  0  0
   69.5544  -30.7138   23.6235 O   0  5  0  0  0  0  0  0  0  0  0  0
   71.5748  -30.5849   24.3499 O   0  0  0  0  0  0  0  0  0  0  0  0
   62.0076  -32.9711   26.0435 F   0  0  0  0  0  0  0  0  0  0  0  0
   63.0016  -33.6296   26.6705 C   0  0  0  0  0  0  0  0  0  0  0  0
   62.5369  -34.8724   26.9240 F   0  0  0  0  0  0  0  0  0  0  0  0
   64.0241  -33.7629   25.7951 F   0  0  0  0  0  0  0  0  0  0  0  0
   63.4324  -32.9243   27.9484 C   0  0  0  0  0  0  0  0  0  0  0  0
   64.6885  -32.3061   27.9974 C   0  0  0  0  0  0  0  0  0  0  0  0
   65.1722  -31.7868   29.2111 C   0  0  0  0  0  0  0  0  0  0  0  0
   64.3764  -31.8351   30.3666 C   0  0  0  0  0  0  0  0  0  0  0  0
   63.0828  -32.3683   30.2944 C   0  0  0  0  0  0  0  0  0  0  0  0
   62.6141  -32.9324   29.0990 C   0  0  0  0  0  0  0  0  0  0  0  0
   66.3229  -30.2875   27.1784 H   0  0  0  0  0  0  0  0  0  0  0  0
   67.4752  -31.8337   27.4515 H   0  0  0  0  0  0  0  0  0  0  0  0
   66.0554  -30.9581   24.6093 H   0  0  0  0  0  0  0  0  0  0  0  0
   67.7963  -30.3228   25.2052 H   0  0  0  0  0  0  0  0  0  0  0  0
   66.9234  -33.4163   24.8317 H   0  0  0  0  0  0  0  0  0  0  0  0
   67.9583  -32.3561   23.5702 H   0  0  0  0  0  0  0  0  0  0  0  0
   71.9082  -32.4962   26.4419 H   0  0  0  0  0  0  0  0  0  0  0  0
   67.2859  -34.8362   26.7278 H   0  0  0  0  0  0  0  0  0  0  0  0
   68.0844  -36.2918   28.4981 H   0  0  0  0  0  0  0  0  0  0  0  0
   70.3410  -36.0674   29.3218 H   0  0  0  0  0  0  0  0  0  0  0  0
   71.8241  -34.4037   28.3593 H   0  0  0  0  0  0  0  0  0  0  0  0
   66.0814  -31.3720   29.2477 H   0  0  0  0  0  0  0  0  0  0  0  0
   64.7201  -31.4646   31.2295 H   0  0  0  0  0  0  0  0  0  0  0  0
   62.5018  -32.3747   31.1082 H   0  0  0  0  0  0  0  0  0  0  0  0
   61.7074  -33.3528   29.0657 H   0  0  0  0  0  0  0  0  0  0  0  0
  1  2  1  0
  1 22  1  0
  2  3  1  0
  3  4  1  0
  4  5  1  0
  5  6  2  0
  5  9  1  0
  6  7  1  0
  6 14  1  0
  7  8  1  0
  8  9  2  0
  8 13  1  0
  9 10  1  0
 10 11  2  0
 11 12  1  0
 12 13  2  0
 14 15  1  0
 14 16  2  0
 17 18  1  0
 18 19  1  0
 18 20  1  0
 18 21  1  0
 21 22  2  0
 22 23  1  0
 23 24  2  0
 24 25  1  0
 25 26  2  0
 26 21  1  0
  2 27  1  0
  2 28  1  0
  3 29  1  0
  3 30  1  0
  4 31  1  0
  4 32  1  0
  7 33  1  0
 10 34  1  0
 11 35  1  0
 12 36  1  0
 13 37  1  0
 23 38  1  0
 24 39  1  0
 25 40  1  0
 26 41  1  0
M  CHG  1  15  -1
M  END
>  <s_m_source_file>
ligprep_mcl1.smi

>  <i_m_source_file_index>
3

>  <i_lp_mmshare_version>
53161

>  <i_f3d_flags>
0

>  <s_epik_input>
W2NIXTFbY0hdW2NIXVtjSF1bY0hdYzFPW0NIMl1bQ0gyXVtDSDJdYyhjKFtuSF0yKUMoPU8pW09IXSljKGMyMylbY0hdW2NIXVtjSF1bY0hdMw==

>  <s_epik_cmdline>
J2VwaWtfcHl0aG9uJywgJy1waHQnLCAnMC4wJywgJy1waCcsICc3LjQnLCAnLXRuJywgJzgnLCAnLW1hJywgJzUwMCcsICctaW1hZScsICc8aW5maWxlLm1hZT4nLCAnLW9tYWUnLCAnPG91dGZpbGUubWFlPic=

>  <r_lp_tautomer_probability>
1

>  <r_epik_Ionization_Penalty>
  0.0006

>  <r_epik_Ionization_Penalty_Charging>
  0.0006

>  <r_epik_Ionization_Penalty_Neutral>
  0.0000

>  <r_epik_State_Penalty>
0

>  <r_epik_Charging_Adjusted_Penalty>
0.000566237

>  <i_epik_Tot_Q>
-1

>  <i_epik_Tot_abs_Q>
1

>  <s_lp_Force_Field>
S-OPLS

>  <r_lp_Energy>
35.4449

>  <b_lp_Chiralities_Consistent>
1

>  <s_lp_Variant>
lig_27-1

>  <s_i_glide_gridfile>
glide-grid_MCL1-4HW3

>  <i_i_glide_lignum>
3

>  <i_i_glide_rotatable_bonds>
6

>  <r_i_docking_score>
-6.71832588685996

>  <r_i_glide_ligand_efficiency>
-0.305378449402725

>  <r_i_glide_ligand_efficiency_sa>
-0.855682425079342

>  <r_i_glide_ligand_efficiency_ln>
-1.6422039036395

>  <r_i_glide_gscore>
-6.71832588685996

>  <r_i_glide_lipo>
-4.50865224199557

>  <r_i_glide_hbond>
-0.415794626771979

>  <r_i_glide_metal>
0

>  <r_i_glide_rewards>
-1.97692635503657

>  <r_i_glide_evdw>
-35.7976875305176

>  <r_i_glide_ecoul>
-3.41090202331543

>  <r_i_glide_erotb>
2.53318583634431

>  <r_i_glide_esite>
-0.0486188193769556

>  <r_i_glide_emodel>
-58.7957750258844

>  <r_i_glide_energy>
-39.208589553833

>  <r_i_glide_einternal>
0.0738022774457932

>  <i_i_glide_confnum>
156

>  <i_i_glide_posenum>
130

>  <r_i_glide_eff_state_penalty>
0

>  <r_i_glide_rmsd>
0.094142993973318

>  <s_glide_core_constrain_type>
snapped_core_restrain

>  <Total Formal Charge>
-1

>  <Favorite_cresset>
false

>  <MW_cresset>
362.3

>  <#Atoms_cresset>
26

>  <SlogP_cresset>
4.9

>  <TPSA_cresset>
65.1

>  <Flexibility_cresset>
4.8

>  <Rof5_cresset>
0

>  <Confs_cresset>
0

>  <Poses_cresset>
0

>  <_cresset_fieldpoints2>
 2
    -5      70.449509     -29.362919      22.604198    -11.5709
    -5      71.340164     -29.294621      22.955223    -11.4811
    -5      70.190353     -36.382156      25.384783     -4.6320
    -5      68.429916     -33.144691      29.721989     -3.5146
    -5      65.779396     -34.758202      29.526829     -3.3033
    -5      62.623066     -29.885769      28.001905     -2.7970
    -5      63.853882     -30.753700      25.463146     -4.2645
    -5      64.033524     -36.525795      24.912457     -2.5143
    -6      73.469009     -32.814804      27.503633      7.7875
    -6      67.647324     -30.039921      29.228340      4.0087
    -6      60.180191     -33.511375      30.701317      2.6259
    -6      63.830765     -31.239014      33.250587      2.4836
    -7      67.716476     -29.963947      22.396454     -1.7706
    -7      64.934738     -32.637699      22.965885     -1.8340
    -7      70.495956     -36.337921      24.914967     -2.0266
    -7      68.025742     -35.706825      23.873085     -1.9691
    -7      66.251831     -35.849991      24.690811     -2.0944
    -7      72.889008     -35.986443      30.335732     -0.9597
    -7      68.398773     -32.488045      29.685608     -3.2727
    -7      69.966431     -33.109444      22.131447     -1.6951
    -7      69.533508     -30.818401      28.405056     -2.7341
    -7      59.537117     -33.870552      28.037399     -1.5669
    -7      62.015617     -35.307709      23.628212     -1.1399
    -7      65.384018     -35.433189      28.783669     -3.2327
    -7      63.285690     -31.458748      33.562160     -0.9611
    -7      63.724518     -30.189701      25.683548     -2.8441
    -8      69.528198     -34.656647      27.570656      6.9408
    -8      63.876450     -32.364277      29.172445      6.9086
    -8      67.787155     -32.087440      25.686338      5.5332
    -8      68.655891     -32.863235      25.660019      5.3298
    -8      63.017761     -33.563065      26.853153      6.2518

$$$$
