lig_31
     RDKit          3D

 41 43  0  0  1  0  0  0  0  0999 V2000
   67.9856  -36.3909   28.5135 H   0  0  0  0  0  0  0  0  0  0  0  0
   68.6804  -35.6786   28.0931 C   0  0  0  0  0  0  0  0  0  0  0  0
   69.9871  -35.5802   28.6112 C   0  0  0  0  0  0  0  0  0  0  0  0
   70.8870  -34.6445   28.0638 C   0  0  0  0  0  0  0  0  0  0  0  0
   70.4722  -33.8244   26.9967 C   0  0  0  0  0  0  0  0  0  0  0  0
   69.1620  -33.9135   26.4469 C   0  0  0  0  0  0  0  0  0  0  0  0
   68.2768  -34.8562   27.0222 C   0  0  0  0  0  0  0  0  0  0  0  0
   67.2735  -34.9434   26.6347 H   0  0  0  0  0  0  0  0  0  0  0  0
   69.0593  -32.9501   25.3835 C   0  0  0  0  0  0  0  0  0  0  0  0
   70.2728  -32.2994   25.3048 C   0  0  0  0  0  0  0  0  0  0  0  0
   71.1058  -32.8290   26.2784 N   0  0  0  0  0  0  0  0  0  0  0  0
   72.0422  -32.4693   26.3994 H   0  0  0  0  0  0  0  0  0  0  0  0
   70.8085  -31.1911   24.4670 C   0  0  0  0  0  0  0  0  0  0  0  0
   70.1631  -30.7727   23.4786 O   0  0  0  0  0  0  0  0  0  0  0  0
   71.9059  -30.6740   24.7776 O   0  0  0  0  0  1  0  0  0  0  0  0
   67.8406  -32.6431   24.5572 C   0  0  0  0  0  0  0  0  0  0  0  0
   67.1144  -33.4536   24.6110 H   0  0  0  0  0  0  0  0  0  0  0  0
   68.1204  -32.5690   23.5055 H   0  0  0  0  0  0  0  0  0  0  0  0
   67.1645  -31.3319   24.9917 C   0  0  0  0  0  0  0  0  0  0  0  0
   66.3976  -31.0567   24.2677 H   0  0  0  0  0  0  0  0  0  0  0  0
   67.8984  -30.5278   24.9738 H   0  0  0  0  0  0  0  0  0  0  0  0
   66.5313  -31.3999   26.3863 C   0  0  0  0  0  0  0  0  0  0  0  0
   66.2388  -30.3955   26.6978 H   0  0  0  0  0  0  0  0  0  0  0  0
   67.2429  -31.7836   27.1172 H   0  0  0  0  0  0  0  0  0  0  0  0
   65.3924  -32.2420   26.3129 O   0  0  0  0  0  0  0  0  0  0  0  0
   64.5274  -32.2538   27.3788 C   0  0  0  0  0  0  0  0  0  0  0  0
   63.2289  -32.7521   27.1523 C   0  0  0  0  0  0  0  0  0  0  0  0
   62.2946  -32.8344   28.2009 C   0  0  0  0  0  0  0  0  0  0  0  0
   62.6468  -32.3817   29.4860 C   0  0  0  0  0  0  0  0  0  0  0  0
   63.9355  -31.8542   29.7212 C   0  0  0  0  0  0  0  0  0  0  0  0
   64.8760  -31.8084   28.6734 C   0  0  0  0  0  0  0  0  0  0  0  0
   65.8614  -31.4258   28.8863 H   0  0  0  0  0  0  0  0  0  0  0  0
   64.3277  -31.3411   31.0907 C   0  0  0  0  0  0  0  0  0  0  0  0
   65.0460  -32.2539   31.7226 F   0  0  0  0  0  0  0  0  0  0  0  0
   63.2413  -31.0539   31.8034 F   0  0  0  0  0  0  0  0  0  0  0  0
   65.0827  -30.2541   30.9926 F   0  0  0  0  0  0  0  0  0  0  0  0
   61.9220  -32.4405   30.2847 H   0  0  0  0  0  0  0  0  0  0  0  0
   61.3077  -33.2314   28.0161 H   0  0  0  0  0  0  0  0  0  0  0  0
   62.9538  -33.0898   26.1633 H   0  0  0  0  0  0  0  0  0  0  0  0
   71.8870  -34.5556   28.4594 H   0  0  0  0  0  0  0  0  0  0  0  0
   70.2939  -36.2144   29.4323 H   0  0  0  0  0  0  0  0  0  0  0  0
  1  2  1  0
  2  7  2  0
  2  3  1  0
  3  4  2  0
  3 41  1  0
  4  5  1  0
  4 40  1  0
  5 11  1  0
  5  6  2  0
  6  7  1  0
  6  9  1  0
  7  8  1  0
  9 10  2  0
  9 16  1  0
 10 11  1  0
 10 13  1  0
 11 12  1  0
 13 14  2  0
 13 15  1  0
 16 17  1  0
 16 18  1  0
 16 19  1  0
 19 20  1  0
 19 21  1  0
 19 22  1  0
 22 23  1  0
 22 24  1  0
 22 25  1  0
 25 26  1  0
 26 31  1  0
 26 27  2  0
 27 28  1  0
 27 39  1  0
 28 29  2  0
 28 38  1  0
 29 30  1  0
 29 37  1  0
 30 31  2  0
 30 33  1  0
 31 32  1  0
 33 34  1  0
 33 35  1  0
 33 36  1  0
M  CHG  1  15  -1
M  END
>  <s_m_source_file>  (1) 
ligprep_mcl1.smi

>  <i_m_source_file_index>  (1) 
7

>  <i_lp_mmshare_version>  (1) 
53161

>  <i_f3d_flags>  (1) 
0

>  <s_epik_input>  (1) 
W2NIXTFbY0hdW2NIXVtjSF1jKGMxMiljKGMoW25IXTIpQyg9TylbT0hdKVtDSDJdW0NIMl1bQ0gyXU9jM1tjSF1bY0hdW2NIXWMoW2NIXTMpQyhGKShGKUY=

>  <s_epik_cmdline>  (1) 
J2VwaWtfcHl0aG9uJywgJy1waHQnLCAnMC4wJywgJy1waCcsICc3LjQnLCAnLXRuJywgJzgnLCAnLW1hJywgJzUwMCcsICctaW1hZScsICc8aW5maWxlLm1hZT4nLCAnLW9tYWUnLCAnPG91dGZpbGUubWFlPic=

>  <r_lp_tautomer_probability>  (1) 
1

>  <r_epik_Ionization_Penalty>  (1) 
  0.0005

>  <r_epik_Ionization_Penalty_Charging>  (1) 
  0.0005

>  <r_epik_Ionization_Penalty_Neutral>  (1) 
  0.0000

>  <r_epik_State_Penalty>  (1) 
 -0.0000

>  <r_epik_Charging_Adjusted_Penalty>  (1) 
0.00045214

>  <i_epik_Tot_Q>  (1) 
-1

>  <i_epik_Tot_abs_Q>  (1) 
1

>  <s_lp_Force_Field>  (1) 
S-OPLS

>  <r_lp_Energy>  (1) 
35.8158

>  <b_lp_Chiralities_Consistent>  (1) 
1

>  <s_lp_Variant>  (1) 
lig_31-1

>  <s_i_glide_gridfile>  (1) 
glide-grid_MCL1-4HW3

>  <i_i_glide_lignum>  (1) 
7

>  <i_i_glide_rotatable_bonds>  (1) 
7

>  <r_i_docking_score>  (1) 
-9.26756168493219

>  <r_i_glide_ligand_efficiency>  (1) 
-0.3564446801897

>  <r_i_glide_ligand_efficiency_sa>  (1) 
-1.05596596251989

>  <r_i_glide_ligand_efficiency_ln>  (1) 
-2.17645645235614

>  <r_i_glide_gscore>  (1) 
-9.26756168493219

>  <r_i_glide_lipo>  (1) 
-4.84418141411962

>  <r_i_glide_hbond>  (1) 
-0.434800900996912

>  <r_i_glide_metal>  (1) 
-0

>  <r_i_glide_rewards>  (1) 
-2.68160442121554

>  <r_i_glide_evdw>  (1) 
-37.1264686584473

>  <r_i_glide_ecoul>  (1) 
-2.84055089950562

>  <r_i_glide_erotb>  (1) 
1.02382038153534

>  <r_i_glide_esite>  (1) 
-0.0483892622872557

>  <r_i_glide_emodel>  (1) 
-68.3357409699403

>  <r_i_glide_energy>  (1) 
-39.9670195579529

>  <r_i_glide_einternal>  (1) 
3.81511545181274

>  <i_i_glide_confnum>  (1) 
34

>  <i_i_glide_posenum>  (1) 
177

>  <r_i_glide_eff_state_penalty>  (1) 
-0

>  <r_i_glide_rmsd>  (1) 
0.0976841453019756

>  <s_glide_core_constrain_type>  (1) 
snapped_core_restrain

$$$$
