lig_43
     RDKit          3D

 44 47  0  0  1  0  0  0  0  0999 V2000
   60.0563  -34.0198   31.0356 H   0  0  0  0  0  0  0  0  0  0  0  0
   60.6986  -33.6934   30.2362 C   0  0  0  0  0  0  0  0  0  0  0  0
   60.3835  -34.0656   28.9189 C   0  0  0  0  0  0  0  0  0  0  0  0
   61.2357  -33.6962   27.8643 C   0  0  0  0  0  0  0  0  0  0  0  0
   62.4164  -32.9791   28.1413 C   0  0  0  0  0  0  0  0  0  0  0  0
   63.3339  -32.7283   27.1102 C   0  0  0  0  0  0  0  0  0  0  0  0
   64.5768  -32.1295   27.3831 C   0  0  0  0  0  0  0  0  0  0  0  0
   64.8644  -31.6909   28.6984 C   0  0  0  0  0  0  0  0  0  0  0  0
   63.9281  -31.9005   29.7326 C   0  0  0  0  0  0  0  0  0  0  0  0
   62.7177  -32.5753   29.4665 C   0  0  0  0  0  0  0  0  0  0  0  0
   61.8424  -32.9201   30.5139 C   0  0  0  0  0  0  0  0  0  0  0  0
   62.0679  -32.6426   31.5336 H   0  0  0  0  0  0  0  0  0  0  0  0
   64.1692  -31.5930   30.7396 H   0  0  0  0  0  0  0  0  0  0  0  0
   65.8058  -31.2204   28.9412 H   0  0  0  0  0  0  0  0  0  0  0  0
   65.4411  -32.0453   26.3225 O   0  0  0  0  0  0  0  0  0  0  0  0
   66.6182  -31.2723   26.4533 C   0  0  0  0  0  0  0  0  0  0  0  0
   67.2938  -31.7239   27.1797 H   0  0  0  0  0  0  0  0  0  0  0  0
   66.3745  -30.2639   26.7911 H   0  0  0  0  0  0  0  0  0  0  0  0
   67.2672  -31.2107   25.0649 C   0  0  0  0  0  0  0  0  0  0  0  0
   68.0376  -30.4403   25.0679 H   0  0  0  0  0  0  0  0  0  0  0  0
   66.5210  -30.8913   24.3381 H   0  0  0  0  0  0  0  0  0  0  0  0
   67.8769  -32.5465   24.5993 C   0  0  0  0  0  0  0  0  0  0  0  0
   68.1426  -32.4678   23.5450 H   0  0  0  0  0  0  0  0  0  0  0  0
   67.1241  -33.3336   24.6534 H   0  0  0  0  0  0  0  0  0  0  0  0
   69.0929  -32.9170   25.3962 C   0  0  0  0  0  0  0  0  0  0  0  0
   70.3296  -32.3135   25.3168 C   0  0  0  0  0  0  0  0  0  0  0  0
   71.1549  -32.9061   26.2607 N   0  0  0  0  0  0  0  0  0  0  0  0
   70.4914  -33.8904   26.9669 C   0  0  0  0  0  0  0  0  0  0  0  0
   69.1694  -33.9075   26.4365 C   0  0  0  0  0  0  0  0  0  0  0  0
   68.2521  -34.8212   27.0091 C   0  0  0  0  0  0  0  0  0  0  0  0
   68.6356  -35.6842   28.0548 C   0  0  0  0  0  0  0  0  0  0  0  0
   69.9527  -35.6545   28.5525 C   0  0  0  0  0  0  0  0  0  0  0  0
   70.8866  -34.7516   28.0074 C   0  0  0  0  0  0  0  0  0  0  0  0
   71.8951  -34.7162   28.3883 H   0  0  0  0  0  0  0  0  0  0  0  0
   70.2438  -36.3216   29.3512 H   0  0  0  0  0  0  0  0  0  0  0  0
   67.9162  -36.3727   28.4733 H   0  0  0  0  0  0  0  0  0  0  0  0
   67.2374  -34.8537   26.6391 H   0  0  0  0  0  0  0  0  0  0  0  0
   72.1092  -32.5905   26.3734 H   0  0  0  0  0  0  0  0  0  0  0  0
   70.9044  -31.2094   24.5004 C   0  0  0  0  0  0  0  0  0  0  0  0
   72.0519  -30.7933   24.7776 O   0  0  0  0  0  0  0  0  0  0  0  0
   70.2457  -30.6957   23.5676 O   0  0  0  0  0  1  0  0  0  0  0  0
   63.1160  -33.0543   26.1029 H   0  0  0  0  0  0  0  0  0  0  0  0
   61.0048  -34.0015   26.8534 H   0  0  0  0  0  0  0  0  0  0  0  0
   59.4838  -34.6411   28.7397 H   0  0  0  0  0  0  0  0  0  0  0  0
  1  2  1  0
  2 11  2  0
  2  3  1  0
  3  4  2  0
  3 44  1  0
  4  5  1  0
  4 43  1  0
  5 10  2  0
  5  6  1  0
  6  7  2  0
  6 42  1  0
  7  8  1  0
  7 15  1  0
  8  9  2  0
  8 14  1  0
  9 10  1  0
  9 13  1  0
 10 11  1  0
 11 12  1  0
 15 16  1  0
 16 17  1  0
 16 18  1  0
 16 19  1  0
 19 20  1  0
 19 21  1  0
 19 22  1  0
 22 23  1  0
 22 24  1  0
 22 25  1  0
 25 29  1  0
 25 26  2  0
 26 27  1  0
 26 39  1  0
 27 28  1  0
 27 38  1  0
 28 33  1  0
 28 29  2  0
 29 30  1  0
 30 31  2  0
 30 37  1  0
 31 32  1  0
 31 36  1  0
 32 33  2  0
 32 35  1  0
 33 34  1  0
 39 40  2  0
 39 41  1  0
M  CHG  1  41  -1
M  END
>  <s_m_source_file>  (1) 
ligprep_mcl1.smi

>  <i_m_source_file_index>  (1) 
19

>  <i_lp_mmshare_version>  (1) 
53161

>  <i_f3d_flags>  (1) 
0

>  <s_epik_input>  (1) 
W2NIXTFbY0hdW2NIXVtjSF1jKGMxMilbY0hdW2NIXWMoW2NIXTIpT1tDSDJdW0NIMl1bQ0gyXWMoYyhbbkhdMylDKD1PKVtPSF0pYyhjMzQpW2NIXVtjSF1bY0hdW2NIXTQ=

>  <s_epik_cmdline>  (1) 
J2VwaWtfcHl0aG9uJywgJy1waHQnLCAnMC4wJywgJy1waCcsICc3LjQnLCAnLXRuJywgJzgnLCAnLW1hJywgJzUwMCcsICctaW1hZScsICc8aW5maWxlLm1hZT4nLCAnLW9tYWUnLCAnPG91dGZpbGUubWFlPic=

>  <r_lp_tautomer_probability>  (1) 
1

>  <r_epik_Ionization_Penalty>  (1) 
  0.0006

>  <r_epik_Ionization_Penalty_Charging>  (1) 
  0.0006

>  <r_epik_Ionization_Penalty_Neutral>  (1) 
  0.0000

>  <r_epik_State_Penalty>  (1) 
 -0.0000

>  <r_epik_Charging_Adjusted_Penalty>  (1) 
0.000566237

>  <i_epik_Tot_Q>  (1) 
-1

>  <i_epik_Tot_abs_Q>  (1) 
1

>  <s_lp_Force_Field>  (1) 
S-OPLS

>  <r_lp_Energy>  (1) 
41.9169

>  <b_lp_Chiralities_Consistent>  (1) 
1

>  <s_lp_Variant>  (1) 
lig_43-1

>  <s_i_glide_gridfile>  (1) 
glide-grid_MCL1-4HW3

>  <i_i_glide_lignum>  (1) 
19

>  <i_i_glide_rotatable_bonds>  (1) 
6

>  <r_i_docking_score>  (1) 
-9.79826239686837

>  <r_i_glide_ligand_efficiency>  (1) 
-0.376856246033399

>  <r_i_glide_ligand_efficiency_sa>  (1) 
-1.11643514601622

>  <r_i_glide_ligand_efficiency_ln>  (1) 
-2.30108977318328

>  <r_i_glide_gscore>  (1) 
-9.79826239686837

>  <r_i_glide_lipo>  (1) 
-5.80891892314523

>  <r_i_glide_hbond>  (1) 
-0.407060779843781

>  <r_i_glide_metal>  (1) 
-0

>  <r_i_glide_rewards>  (1) 
-1.95844403538373

>  <r_i_glide_evdw>  (1) 
-41.7975387573242

>  <r_i_glide_ecoul>  (1) 
-2.95840716362

>  <r_i_glide_erotb>  (1) 
0.960544967154823

>  <r_i_glide_esite>  (1) 
-0.0507456132412436

>  <r_i_glide_emodel>  (1) 
-63.9003983962847

>  <r_i_glide_energy>  (1) 
-44.7559459209442

>  <r_i_glide_einternal>  (1) 
0.158556967973709

>  <i_i_glide_confnum>  (1) 
177

>  <i_i_glide_posenum>  (1) 
12

>  <r_i_glide_eff_state_penalty>  (1) 
-0

>  <r_i_glide_rmsd>  (1) 
0.108036238095667

>  <s_glide_core_constrain_type>  (1) 
snapped_core_restrain

$$$$
