lig_56
     RDKit          3D

 47 49  0  0  1  0  0  0  0  0999 V2000
   67.7794  -36.3158   28.5240 H   0  0  0  0  0  0  0  0  0  0  0  0
   68.5193  -35.6583   28.0887 C   0  0  0  0  0  0  0  0  0  0  0  0
   69.8389  -35.6703   28.5718 C   0  0  0  0  0  0  0  0  0  0  0  0
   70.7995  -34.8107   28.0057 C   0  0  0  0  0  0  0  0  0  0  0  0
   70.4361  -33.9467   26.9462 C   0  0  0  0  0  0  0  0  0  0  0  0
   69.1103  -33.9320   26.4352 C   0  0  0  0  0  0  0  0  0  0  0  0
   68.1616  -34.7972   27.0326 C   0  0  0  0  0  0  0  0  0  0  0  0
   67.1432  -34.7951   26.6721 H   0  0  0  0  0  0  0  0  0  0  0  0
   69.0533  -32.9707   25.3786 C   0  0  0  0  0  0  0  0  0  0  0  0
   70.3084  -32.4074   25.2582 C   0  0  0  0  0  0  0  0  0  0  0  0
   71.1546  -33.0054   26.2143 N   0  0  0  0  0  0  0  0  0  0  0  0
   72.5702  -32.7257   26.4267 C   0  0  0  0  0  0  0  0  0  0  0  0
   73.0210  -33.4576   27.0942 H   0  0  0  0  0  0  0  0  0  0  0  0
   73.1071  -32.7625   25.4791 H   0  0  0  0  0  0  0  0  0  0  0  0
   72.6849  -31.7370   26.8701 H   0  0  0  0  0  0  0  0  0  0  0  0
   70.7879  -31.3220   24.3335 C   0  0  0  0  0  0  0  0  0  0  0  0
   70.1418  -31.0542   23.2944 O   0  0  0  0  0  0  0  0  0  0  0  0
   71.8110  -30.6540   24.6002 O   0  0  0  0  0  1  0  0  0  0  0  0
   67.8197  -32.6069   24.5987 C   0  0  0  0  0  0  0  0  0  0  0  0
   67.0730  -33.3975   24.6715 H   0  0  0  0  0  0  0  0  0  0  0  0
   68.0554  -32.5381   23.5354 H   0  0  0  0  0  0  0  0  0  0  0  0
   67.2075  -31.2771   25.0679 C   0  0  0  0  0  0  0  0  0  0  0  0
   66.4415  -30.9752   24.3552 H   0  0  0  0  0  0  0  0  0  0  0  0
   67.9715  -30.4993   25.0441 H   0  0  0  0  0  0  0  0  0  0  0  0
   66.5815  -31.3393   26.4704 C   0  0  0  0  0  0  0  0  0  0  0  0
   66.3258  -30.3300   26.8012 H   0  0  0  0  0  0  0  0  0  0  0  0
   67.2780  -31.7648   27.1938 H   0  0  0  0  0  0  0  0  0  0  0  0
   65.4165  -32.1369   26.3724 O   0  0  0  0  0  0  0  0  0  0  0  0
   64.5470  -32.1806   27.4342 C   0  0  0  0  0  0  0  0  0  0  0  0
   63.2734  -32.7233   27.1780 C   0  0  0  0  0  0  0  0  0  0  0  0
   62.3260  -32.8802   28.2064 C   0  0  0  0  0  0  0  0  0  0  0  0
   62.6460  -32.4455   29.5115 C   0  0  0  0  0  0  0  0  0  0  0  0
   63.9053  -31.8539   29.7774 C   0  0  0  0  0  0  0  0  0  0  0  0
   64.8547  -31.7329   28.7395 C   0  0  0  0  0  0  0  0  0  0  0  0
   65.8198  -31.3030   28.9627 H   0  0  0  0  0  0  0  0  0  0  0  0
   64.2528  -31.3599   31.1675 C   0  0  0  0  0  0  0  0  0  0  0  0
   65.2197  -30.8556   31.1861 H   0  0  0  0  0  0  0  0  0  0  0  0
   64.2922  -32.1952   31.8669 H   0  0  0  0  0  0  0  0  0  0  0  0
   63.5000  -30.6530   31.5176 H   0  0  0  0  0  0  0  0  0  0  0  0
   61.4986  -32.6573   30.7827 Cl  0  0  0  0  0  0  0  0  0  0  0  0
   60.9956  -33.5467   27.9023 C   0  0  0  0  0  0  0  0  0  0  0  0
   60.9692  -33.9316   26.8820 H   0  0  0  0  0  0  0  0  0  0  0  0
   60.8181  -34.3832   28.5801 H   0  0  0  0  0  0  0  0  0  0  0  0
   60.1806  -32.8310   28.0068 H   0  0  0  0  0  0  0  0  0  0  0  0
   63.0409  -33.0610   26.1778 H   0  0  0  0  0  0  0  0  0  0  0  0
   71.8083  -34.8200   28.3849 H   0  0  0  0  0  0  0  0  0  0  0  0
   70.1118  -36.3374   29.3778 H   0  0  0  0  0  0  0  0  0  0  0  0
  1  2  1  0
  2  7  2  0
  2  3  1  0
  3  4  2  0
  3 47  1  0
  4  5  1  0
  4 46  1  0
  5 11  1  0
  5  6  2  0
  6  7  1  0
  6  9  1  0
  7  8  1  0
  9 10  2  0
  9 19  1  0
 10 11  1  0
 10 16  1  0
 11 12  1  0
 12 13  1  0
 12 14  1  0
 12 15  1  0
 16 17  2  0
 16 18  1  0
 19 20  1  0
 19 21  1  0
 19 22  1  0
 22 23  1  0
 22 24  1  0
 22 25  1  0
 25 26  1  0
 25 27  1  0
 25 28  1  0
 28 29  1  0
 29 34  1  0
 29 30  2  0
 30 31  1  0
 30 45  1  0
 31 32  2  0
 31 41  1  0
 32 33  1  0
 32 40  1  0
 33 34  2  0
 33 36  1  0
 34 35  1  0
 36 37  1  0
 36 38  1  0
 36 39  1  0
 41 42  1  0
 41 43  1  0
 41 44  1  0
M  CHG  1  18  -1
M  END
>  <s_m_source_file>  (1) 
ligprep_mcl1.smi

>  <i_m_source_file_index>  (1) 
31

>  <i_lp_mmshare_version>  (1) 
53161

>  <i_f3d_flags>  (1) 
0

>  <s_epik_input>  (1) 
W2NIXTFbY0hdW2NIXVtjSF1jKGMxMiljKGMobjJbQ0gzXSlDKD1PKVtPSF0pW0NIMl1bQ0gyXVtDSDJdT2MzW2NIXWMoW0NIM10pYyhDbCljKFtjSF0zKVtDSDNd

>  <s_epik_cmdline>  (1) 
J2VwaWtfcHl0aG9uJywgJy1waHQnLCAnMC4wJywgJy1waCcsICc3LjQnLCAnLXRuJywgJzgnLCAnLW1hJywgJzUwMCcsICctaW1hZScsICc8aW5maWxlLm1hZT4nLCAnLW9tYWUnLCAnPG91dGZpbGUubWFlPic=

>  <r_lp_tautomer_probability>  (1) 
1

>  <r_epik_Ionization_Penalty>  (1) 
  0.0099

>  <r_epik_Ionization_Penalty_Charging>  (1) 
  0.0099

>  <r_epik_Ionization_Penalty_Neutral>  (1) 
  0.0000

>  <r_epik_State_Penalty>  (1) 
 -0.0000

>  <r_epik_Charging_Adjusted_Penalty>  (1) 
0.00989628

>  <i_epik_Tot_Q>  (1) 
-1

>  <i_epik_Tot_abs_Q>  (1) 
1

>  <s_lp_Force_Field>  (1) 
S-OPLS

>  <r_lp_Energy>  (1) 
44.3564

>  <b_lp_Chiralities_Consistent>  (1) 
1

>  <s_lp_Variant>  (1) 
lig_56-1

>  <s_i_glide_gridfile>  (1) 
glide-grid_MCL1-4HW3

>  <i_i_glide_lignum>  (1) 
31

>  <i_i_glide_rotatable_bonds>  (1) 
6

>  <r_i_docking_score>  (1) 
-9.73985789915236

>  <r_i_glide_ligand_efficiency>  (1) 
-0.374609919198168

>  <r_i_glide_ligand_efficiency_sa>  (1) 
-1.10978041160572

>  <r_i_glide_ligand_efficiency_ln>  (1) 
-2.28737366853546

>  <r_i_glide_gscore>  (1) 
-9.73985789915236

>  <r_i_glide_lipo>  (1) 
-5.55540823262131

>  <r_i_glide_hbond>  (1) 
-0.398663424286482

>  <r_i_glide_metal>  (1) 
-0

>  <r_i_glide_rewards>  (1) 
-1.82793339894715

>  <r_i_glide_evdw>  (1) 
-45.153491973877

>  <r_i_glide_ecoul>  (1) 
-3.35108757019043

>  <r_i_glide_erotb>  (1) 
0.841857308148048

>  <r_i_glide_esite>  (1) 
-0.0393724172230523

>  <r_i_glide_emodel>  (1) 
-85.4870697840366

>  <r_i_glide_energy>  (1) 
-48.5045795440674

>  <r_i_glide_einternal>  (1) 
3.8269362449646

>  <i_i_glide_confnum>  (1) 
12

>  <i_i_glide_posenum>  (1) 
13

>  <r_i_glide_eff_state_penalty>  (1) 
-0

>  <r_i_glide_rmsd>  (1) 
0.0727343853755301

>  <s_glide_core_constrain_type>  (1) 
snapped_core_restrain

$$$$
