lig_42
  xed2sdf           3D
 
 44 47  0  0  0  0  0  0  0  0999 V2000
   65.3331  -31.8411   26.5614 O   0  0  0  0  0  0  0  0  0  0  0  0
   66.5807  -31.1277   26.4914 C   0  0  0  0  0  0  0  0  0  0  0  0
   67.0765  -31.1166   25.0318 C   0  0  0  0  0  0  0  0  0  0  0  0
   67.6704  -32.4815   24.6188 C   0  0  0  0  0  0  0  0  0  0  0  0
   68.8940  -32.7976   25.4408 C   0  0  0  0  0  0  0  0  0  0  0  0
   70.1091  -32.1061   25.3042 C   0  0  0  0  0  0  0  0  0  0  0  0
   71.0138  -32.6419   26.2748 N   0  0  0  0  0  0  0  0  0  0  0  0
   70.3460  -33.6413   26.9498 C   0  0  0  0  0  0  0  0  0  0  0  0
   69.0710  -33.7619   26.4929 C   0  0  0  0  0  0  0  0  0  0  0  0
   68.1838  -34.7001   27.0351 C   0  0  0  0  0  0  0  0  0  0  0  0
   68.6586  -35.5385   28.0689 C   0  0  0  0  0  0  0  0  0  0  0  0
   69.9927  -35.4212   28.5301 C   0  0  0  0  0  0  0  0  0  0  0  0
   70.8575  -34.4555   27.9683 C   0  0  0  0  0  0  0  0  0  0  0  0
   70.3596  -30.9828   24.3266 C   0  0  0  0  0  0  0  0  0  0  0  0
   69.4795  -30.7010   23.5260 O   0  5  0  0  0  0  0  0  0  0  0  0
   71.4441  -30.4195   24.3472 O   0  0  0  0  0  0  0  0  0  0  0  0
   64.7150  -32.0513   27.7815 C   0  0  0  0  0  0  0  0  0  0  0  0
   65.2796  -31.5379   28.9634 C   0  0  0  0  0  0  0  0  0  0  0  0
   64.7167  -31.8326   30.2159 C   0  0  0  0  0  0  0  0  0  0  0  0
   63.5803  -32.6484   30.2859 C   0  0  0  0  0  0  0  0  0  0  0  0
   62.9640  -33.0979   29.1120 C   0  0  0  0  0  0  0  0  0  0  0  0
   61.7819  -33.8474   29.2067 C   0  0  0  0  0  0  0  0  0  0  0  0
   61.1296  -34.2787   28.0432 C   0  0  0  0  0  0  0  0  0  0  0  0
   61.6744  -33.9798   26.7868 C   0  0  0  0  0  0  0  0  0  0  0  0
   62.8777  -33.2599   26.6847 C   0  0  0  0  0  0  0  0  0  0  0  0
   63.5232  -32.7997   27.8487 C   0  0  0  0  0  0  0  0  0  0  0  0
   66.3917  -30.0002   26.8562 H   0  0  0  0  0  0  0  0  0  0  0  0
   67.3970  -31.6397   27.2060 H   0  0  0  0  0  0  0  0  0  0  0  0
   66.1780  -30.8284   24.2892 H   0  0  0  0  0  0  0  0  0  0  0  0
   67.9165  -30.2646   24.9569 H   0  0  0  0  0  0  0  0  0  0  0  0
   66.8482  -33.3361   24.8011 H   0  0  0  0  0  0  0  0  0  0  0  0
   67.9597  -32.4668   23.4545 H   0  0  0  0  0  0  0  0  0  0  0  0
   71.8446  -32.3853   26.4107 H   0  0  0  0  0  0  0  0  0  0  0  0
   67.2451  -34.7766   26.6992 H   0  0  0  0  0  0  0  0  0  0  0  0
   68.0503  -36.2203   28.4750 H   0  0  0  0  0  0  0  0  0  0  0  0
   70.3224  -36.0212   29.2590 H   0  0  0  0  0  0  0  0  0  0  0  0
   71.8001  -34.3561   28.2869 H   0  0  0  0  0  0  0  0  0  0  0  0
   66.1088  -30.9816   28.9163 H   0  0  0  0  0  0  0  0  0  0  0  0
   65.1373  -31.4816   31.0525 H   0  0  0  0  0  0  0  0  0  0  0  0
   63.1883  -32.8817   31.1759 H   0  0  0  0  0  0  0  0  0  0  0  0
   61.3976  -34.0637   30.1043 H   0  0  0  0  0  0  0  0  0  0  0  0
   60.2802  -34.8023   28.1095 H   0  0  0  0  0  0  0  0  0  0  0  0
   61.2103  -34.2912   25.9576 H   0  0  0  0  0  0  0  0  0  0  0  0
   63.2655  -33.0626   25.7845 H   0  0  0  0  0  0  0  0  0  0  0  0
  1  2  1  0
  1 17  1  0
  2  3  1  0
  3  4  1  0
  4  5  1  0
  5  6  2  0
  5  9  1  0
  6  7  1  0
  6 14  1  0
  7  8  1  0
  8  9  2  0
  8 13  1  0
  9 10  1  0
 10 11  2  0
 11 12  1  0
 12 13  2  0
 14 15  1  0
 14 16  2  0
 17 18  2  0
 18 19  1  0
 19 20  2  0
 20 21  1  0
 21 22  2  0
 22 23  1  0
 23 24  2  0
 24 25  1  0
 25 26  2  0
 26 17  1  0
 26 21  1  0
  2 27  1  0
  2 28  1  0
  3 29  1  0
  3 30  1  0
  4 31  1  0
  4 32  1  0
  7 33  1  0
 10 34  1  0
 11 35  1  0
 12 36  1  0
 13 37  1  0
 18 38  1  0
 19 39  1  0
 20 40  1  0
 22 41  1  0
 23 42  1  0
 24 43  1  0
 25 44  1  0
M  CHG  1  15  -1
M  END
>  <s_m_source_file>
ligprep_mcl1.smi

>  <i_m_source_file_index>
3

>  <i_lp_mmshare_version>
53161

>  <i_f3d_flags>
0

>  <s_epik_input>
W2NIXTFbY0hdW2NIXVtjSF1bY0hdYzFPW0NIMl1bQ0gyXVtDSDJdYyhjKFtuSF0yKUMoPU8pW09IXSljKGMyMylbY0hdW2NIXVtjSF1bY0hdMw==

>  <s_epik_cmdline>
J2VwaWtfcHl0aG9uJywgJy1waHQnLCAnMC4wJywgJy1waCcsICc3LjQnLCAnLXRuJywgJzgnLCAnLW1hJywgJzUwMCcsICctaW1hZScsICc8aW5maWxlLm1hZT4nLCAnLW9tYWUnLCAnPG91dGZpbGUubWFlPic=

>  <r_lp_tautomer_probability>
1

>  <r_epik_Ionization_Penalty>
  0.0006

>  <r_epik_Ionization_Penalty_Charging>
  0.0006

>  <r_epik_Ionization_Penalty_Neutral>
  0.0000

>  <r_epik_State_Penalty>
0

>  <r_epik_Charging_Adjusted_Penalty>
0.000566237

>  <i_epik_Tot_Q>
-1

>  <i_epik_Tot_abs_Q>
1

>  <s_lp_Force_Field>
S-OPLS

>  <r_lp_Energy>
35.4449

>  <b_lp_Chiralities_Consistent>
1

>  <s_lp_Variant>
lig_27-1

>  <s_i_glide_gridfile>
glide-grid_MCL1-4HW3

>  <i_i_glide_lignum>
3

>  <i_i_glide_rotatable_bonds>
6

>  <r_i_docking_score>
-6.71832588685996

>  <r_i_glide_ligand_efficiency>
-0.305378449402725

>  <r_i_glide_ligand_efficiency_sa>
-0.855682425079342

>  <r_i_glide_ligand_efficiency_ln>
-1.6422039036395

>  <r_i_glide_gscore>
-6.71832588685996

>  <r_i_glide_lipo>
-4.50865224199557

>  <r_i_glide_hbond>
-0.415794626771979

>  <r_i_glide_metal>
0

>  <r_i_glide_rewards>
-1.97692635503657

>  <r_i_glide_evdw>
-35.7976875305176

>  <r_i_glide_ecoul>
-3.41090202331543

>  <r_i_glide_erotb>
2.53318583634431

>  <r_i_glide_esite>
-0.0486188193769556

>  <r_i_glide_emodel>
-58.7957750258844

>  <r_i_glide_energy>
-39.208589553833

>  <r_i_glide_einternal>
0.0738022774457932

>  <i_i_glide_confnum>
156

>  <i_i_glide_posenum>
130

>  <r_i_glide_eff_state_penalty>
0

>  <r_i_glide_rmsd>
0.094142993973318

>  <s_glide_core_constrain_type>
snapped_core_restrain

>  <Total Formal Charge>
-1

>  <Favorite_cresset>
false

>  <MW_cresset>
344.4

>  <#Atoms_cresset>
26

>  <SlogP_cresset>
5

>  <TPSA_cresset>
65.1

>  <Flexibility_cresset>
4.8

>  <Rof5_cresset>
1

>  <Confs_cresset>
0

>  <Poses_cresset>
0

>  <_cresset_fieldpoints2>
 2
    -5      63.816551     -30.493309      25.434607     -4.7127
    -5      61.319710     -30.807625      28.068361     -4.9236
    -5      70.345566     -29.304255      22.544203    -11.5520
    -5      71.175232     -29.175465      22.917225    -11.4683
    -5      70.162476     -36.357815      25.363922     -4.5602
    -5      65.585281     -34.750465      29.157913     -4.8450
    -5      67.758499     -33.306953      29.650612     -4.3508
    -6      67.708992     -29.684135      28.850403      3.8081
    -6      65.693260     -35.336197      25.270409      1.3466
    -6      73.416206     -32.700203      27.457626      7.7898
    -6      61.571350     -33.893055      32.273575      3.1865
    -7      70.026947     -32.901222      22.012974     -1.7040
    -7      67.782684     -30.233292      22.002705     -1.7526
    -7      68.232727     -35.670113      23.788609     -1.9261
    -7      65.351669     -35.382744      28.708511     -3.2018
    -7      72.879669     -35.918892      30.267506     -0.9592
    -7      70.445068     -36.311272      24.878742     -2.0203
    -7      69.037437     -28.339928      23.806963     -1.4658
    -7      73.115997     -32.538250      24.162014     -1.4979
    -7      63.611465     -30.455322      24.970581     -2.4282
    -7      68.441620     -32.236977      29.456882     -3.3722
    -7      64.104965     -32.111141      33.570755     -0.9998
    -7      61.868187     -30.021675      28.460724     -2.2563
    -7      58.939217     -35.815235      25.947697     -0.9624
    -7      59.098213     -35.350021      30.574354     -0.9976
    -7      65.213135     -35.041862      25.556189     -2.8501
    -7      64.491043     -32.771721      23.806927     -2.4804
    -8      67.787308     -31.966198      25.522270      5.5402
    -8      68.661835     -32.792061      25.556929      5.3150
    -8      64.105438     -32.341347      29.055651      6.9353
    -8      69.496979     -34.602268      27.518013      6.9307
    -8      62.335091     -33.536007      27.955950      7.0116

$$$$
