lig_jmc_27
     RDKit          3D

 36 38  0  0  1  0  0  0  0  0999 V2000
   -4.7756   -2.7877  -16.4844 H   0  0  0  0  0  0  0  0  0  0  0  0
   -5.3587   -3.6550  -16.2176 C   0  0  0  0  0  0  0  0  0  0  0  0
   -4.7652   -4.9283  -16.2021 C   0  0  0  0  0  0  0  0  0  0  0  0
   -5.5260   -6.0594  -15.8435 C   0  0  0  0  0  0  0  0  0  0  0  0
   -6.8922   -5.9214  -15.4825 C   0  0  0  0  0  0  0  0  0  0  0  0
   -7.4850   -4.6345  -15.5167 C   0  0  0  0  0  0  0  0  0  0  0  0
   -6.7156   -3.5162  -15.8818 C   0  0  0  0  0  0  0  0  0  0  0  0
   -7.1742   -2.5394  -15.9086 H   0  0  0  0  0  0  0  0  0  0  0  0
   -9.1595   -4.3895  -15.1543 Cl  0  0  0  0  0  0  0  0  0  0  0  0
   -7.7022   -7.1116  -15.0517 C   0  0  0  0  0  0  0  0  0  0  0  0
   -8.1073   -7.1971  -13.8946 O   0  0  0  0  0  0  0  0  0  0  0  0
   -7.9076   -8.0155  -16.0261 N   0  0  0  0  0  0  0  0  0  0  0  0
   -7.4451   -7.8166  -16.8998 H   0  0  0  0  0  0  0  0  0  0  0  0
   -8.7271   -9.1743  -16.0305 C   0  0  0  0  0  0  0  0  0  0  0  0
   -9.5652   -9.5760  -14.9683 C   0  0  0  0  0  0  0  0  0  0  0  0
  -10.3625  -10.7185  -15.1467 C   0  0  0  0  0  0  0  0  0  0  0  0
  -10.3445  -11.4710  -16.2676 N   0  0  0  0  0  0  0  0  0  0  0  0
   -9.5311  -11.1137  -17.2873 C   0  0  0  0  0  0  0  0  0  0  0  0
   -8.7251   -9.9523  -17.2029 C   0  0  0  0  0  0  0  0  0  0  0  0
   -8.1099   -9.6327  -18.0293 H   0  0  0  0  0  0  0  0  0  0  0  0
   -9.5482  -11.9136  -18.4626 N   0  0  0  0  0  0  0  0  0  0  0  0
  -10.3636  -12.5035  -18.5497 H   0  0  0  0  0  0  0  0  0  0  0  0
   -8.6240  -12.0419  -19.4379 C   0  0  0  0  0  0  0  0  0  0  0  0
   -7.5640  -11.4156  -19.4881 O   0  0  0  0  0  0  0  0  0  0  0  0
   -9.0244  -13.0321  -20.4844 C   0  0  2  0  0  0  0  0  0  0  0  0
   -7.9862  -13.8559  -21.2365 C   0  0  1  0  0  0  0  0  0  0  0  0
   -8.6884  -12.7163  -21.9259 C   0  0  0  0  0  0  0  0  0  0  0  0
   -8.1131  -11.8158  -22.1324 H   0  0  0  0  0  0  0  0  0  0  0  0
   -9.4510  -12.9532  -22.6649 H   0  0  0  0  0  0  0  0  0  0  0  0
   -8.2699  -14.8683  -21.5157 H   0  0  0  0  0  0  0  0  0  0  0  0
   -6.2504  -13.7351  -21.0529 Cl  0  0  0  0  0  0  0  0  0  0  0  0
   -9.9847  -13.5193  -20.3249 H   0  0  0  0  0  0  0  0  0  0  0  0
  -11.0261  -11.0465  -14.3612 H   0  0  0  0  0  0  0  0  0  0  0  0
   -9.6410   -9.0305  -14.0395 H   0  0  0  0  0  0  0  0  0  0  0  0
   -4.7416   -7.5955  -15.8535 Cl  0  0  0  0  0  0  0  0  0  0  0  0
   -3.7210   -5.0375  -16.4601 H   0  0  0  0  0  0  0  0  0  0  0  0
  1  2  1  0
  2  7  2  0
  2  3  1  0
  3  4  2  0
  3 36  1  0
  4  5  1  0
  4 35  1  0
  5  6  2  0
  5 10  1  0
  6  7  1  0
  6  9  1  0
  7  8  1  0
 10 11  2  0
 10 12  1  0
 12 13  1  0
 12 14  1  0
 14 19  1  0
 14 15  2  0
 15 16  1  0
 15 34  1  0
 16 17  2  0
 16 33  1  0
 17 18  1  0
 18 19  2  0
 18 21  1  0
 19 20  1  0
 21 22  1  0
 21 23  1  0
 23 24  2  0
 23 25  1  0
 25 27  1  0
 25 26  1  0
 25 32  1  6
 26 27  1  0
 26 30  1  6
 26 31  1  0
 27 28  1  0
 27 29  1  0
M  END
>  <s_m_source_file>  (1) 
ligprep_tyk2.smi

>  <i_m_source_file_index>  (1) 
14

>  <i_lp_mmshare_version>  (1) 
53161

>  <i_f3d_flags>  (1) 
0

>  <s_epik_input>  (1) 
Q2xjMVtjSF1bY0hdW2NIXWMoQ2wpYzFDKD1PKVtOSF1jMltjSF1bY0hdbmMoW2NIXTIpW05IXUMoPU8pW0NAQEhdM1tDQEhdKENsKVtDSDJdMw==

>  <s_epik_cmdline>  (1) 
J2VwaWtfcHl0aG9uJywgJy1waHQnLCAnMC4wJywgJy1waCcsICc3LjQnLCAnLXRuJywgJzgnLCAnLW1hJywgJzUwMCcsICctaW1hZScsICc8aW5maWxlLm1hZT4nLCAnLW9tYWUnLCAnPG91dGZpbGUubWFlPic=

>  <r_lp_tautomer_probability>  (1) 
1

>  <r_epik_Ionization_Penalty>  (1) 
  0.0036

>  <r_epik_Ionization_Penalty_Charging>  (1) 
  0.0000

>  <r_epik_Ionization_Penalty_Neutral>  (1) 
  0.0036

>  <r_epik_State_Penalty>  (1) 
 -0.0000

>  <r_epik_Charging_Adjusted_Penalty>  (1) 
0

>  <i_epik_Tot_Q>  (1) 
0

>  <i_epik_Tot_abs_Q>  (1) 
0

>  <s_lp_Force_Field>  (1) 
S-OPLS

>  <r_lp_Energy>  (1) 
45.7895

>  <b_lp_Chiralities_Consistent>  (1) 
1

>  <s_lp_Variant>  (1) 
lig_jmc_27-1

>  <s_i_glide_gridfile>  (1) 
glide-grid_TYK2-4GIH

>  <i_i_glide_lignum>  (1) 
14

>  <i_i_glide_rotatable_bonds>  (1) 
6

>  <r_i_docking_score>  (1) 
-9.71015652983447

>  <r_i_glide_ligand_efficiency>  (1) 
-0.40458985540977

>  <r_i_glide_ligand_efficiency_sa>  (1) 
-1.16703908899465

>  <r_i_glide_ligand_efficiency_ln>  (1) 
-2.32408602763881

>  <r_i_glide_gscore>  (1) 
-9.71015652983447

>  <r_i_glide_lipo>  (1) 
-3.56915207781519

>  <r_i_glide_hbond>  (1) 
-0.556282560709614

>  <r_i_glide_metal>  (1) 
-0

>  <r_i_glide_rewards>  (1) 
-2.13575812300125

>  <r_i_glide_evdw>  (1) 
-52.1847076416016

>  <r_i_glide_ecoul>  (1) 
-9.278151512146

>  <r_i_glide_erotb>  (1) 
0.551994340593567

>  <r_i_glide_esite>  (1) 
0

>  <r_i_glide_emodel>  (1) 
-91.716399874819

>  <r_i_glide_energy>  (1) 
-61.4628591537476

>  <r_i_glide_einternal>  (1) 
8.68225413341861e-07

>  <i_i_glide_confnum>  (1) 
1

>  <i_i_glide_posenum>  (1) 
1

>  <r_i_glide_eff_state_penalty>  (1) 
-0

>  <r_i_glide_rmsd>  (1) 
0.072425085815604

>  <s_glide_core_constrain_type>  (1) 
snapped_core_restrain

$$$$
