lig_46
     RDKit          3D

 45 48  0  0  1  0  0  0  0  0999 V2000
   67.9002  -36.4091   28.5016 H   0  0  0  0  0  0  0  0  0  0  0  0
   68.6144  -35.7194   28.0740 C   0  0  0  0  0  0  0  0  0  0  0  0
   69.9403  -35.7003   28.5497 C   0  0  0  0  0  0  0  0  0  0  0  0
   70.8658  -34.7940   27.9924 C   0  0  0  0  0  0  0  0  0  0  0  0
   70.4583  -33.9305   26.9575 C   0  0  0  0  0  0  0  0  0  0  0  0
   69.1307  -33.9415   26.4433 C   0  0  0  0  0  0  0  0  0  0  0  0
   68.2193  -34.8530   27.0334 C   0  0  0  0  0  0  0  0  0  0  0  0
   67.1997  -34.8800   26.6799 H   0  0  0  0  0  0  0  0  0  0  0  0
   69.0454  -32.9564   25.3946 C   0  0  0  0  0  0  0  0  0  0  0  0
   70.2860  -32.3581   25.3048 C   0  0  0  0  0  0  0  0  0  0  0  0
   71.1147  -32.9465   26.2459 N   0  0  0  0  0  0  0  0  0  0  0  0
   72.0679  -32.6311   26.3530 H   0  0  0  0  0  0  0  0  0  0  0  0
   70.8615  -31.2641   24.4771 C   0  0  0  0  0  0  0  0  0  0  0  0
   72.0091  -30.8436   24.7477 O   0  0  0  0  0  0  0  0  0  0  0  0
   70.2016  -30.7635   23.5389 O   0  0  0  0  0  1  0  0  0  0  0  0
   67.8208  -32.6133   24.5995 C   0  0  0  0  0  0  0  0  0  0  0  0
   68.0879  -32.5083   23.5474 H   0  0  0  0  0  0  0  0  0  0  0  0
   67.0954  -33.4277   24.6358 H   0  0  0  0  0  0  0  0  0  0  0  0
   67.1731  -31.3079   25.0864 C   0  0  0  0  0  0  0  0  0  0  0  0
   67.9237  -30.5183   25.0741 H   0  0  0  0  0  0  0  0  0  0  0  0
   66.3986  -31.0120   24.3791 H   0  0  0  0  0  0  0  0  0  0  0  0
   66.5598  -31.3921   26.4911 C   0  0  0  0  0  0  0  0  0  0  0  0
   67.2552  -31.8355   27.2071 H   0  0  0  0  0  0  0  0  0  0  0  0
   66.3122  -30.3838   26.8311 H   0  0  0  0  0  0  0  0  0  0  0  0
   65.3821  -32.1720   26.3843 O   0  0  0  0  0  0  0  0  0  0  0  0
   64.5135  -32.1904   27.4489 C   0  0  0  0  0  0  0  0  0  0  0  0
   64.8527  -31.7765   28.7713 C   0  0  0  0  0  0  0  0  0  0  0  0
   63.9077  -31.8714   29.8190 C   0  0  0  0  0  0  0  0  0  0  0  0
   62.6443  -32.4202   29.5342 C   0  0  0  0  0  0  0  0  0  0  0  0
   62.3104  -32.8235   28.2483 C   0  0  0  0  0  0  0  0  0  0  0  0
   63.2191  -32.6938   27.1855 C   0  0  0  0  0  0  0  0  0  0  0  0
   62.9524  -33.0259   26.1932 H   0  0  0  0  0  0  0  0  0  0  0  0
   60.9491  -33.4550   28.2038 C   0  0  0  0  0  0  0  0  0  0  0  0
   60.5183  -33.5209   29.6885 C   0  0  0  0  0  0  0  0  0  0  0  0
   61.5304  -32.6909   30.5073 C   0  0  0  0  0  0  0  0  0  0  0  0
   61.8841  -33.2312   31.3833 H   0  0  0  0  0  0  0  0  0  0  0  0
   61.0898  -31.7497   30.8295 H   0  0  0  0  0  0  0  0  0  0  0  0
   60.5754  -34.5608   30.0162 H   0  0  0  0  0  0  0  0  0  0  0  0
   59.4915  -33.1863   29.8419 H   0  0  0  0  0  0  0  0  0  0  0  0
   60.2739  -32.8417   27.6112 H   0  0  0  0  0  0  0  0  0  0  0  0
   61.0122  -34.4464   27.7573 H   0  0  0  0  0  0  0  0  0  0  0  0
   64.1638  -31.5618   30.8222 H   0  0  0  0  0  0  0  0  0  0  0  0
   65.8394  -31.3952   29.0082 H   0  0  0  0  0  0  0  0  0  0  0  0
   71.8826  -34.7644   28.3577 H   0  0  0  0  0  0  0  0  0  0  0  0
   70.2470  -36.3747   29.3404 H   0  0  0  0  0  0  0  0  0  0  0  0
  1  2  1  0
  2  7  2  0
  2  3  1  0
  3  4  2  0
  3 45  1  0
  4  5  1  0
  4 44  1  0
  5 11  1  0
  5  6  2  0
  6  7  1  0
  6  9  1  0
  7  8  1  0
  9 10  2  0
  9 16  1  0
 10 11  1  0
 10 13  1  0
 11 12  1  0
 13 14  2  0
 13 15  1  0
 16 17  1  0
 16 18  1  0
 16 19  1  0
 19 20  1  0
 19 21  1  0
 19 22  1  0
 22 23  1  0
 22 24  1  0
 22 25  1  0
 25 26  1  0
 26 31  1  0
 26 27  2  0
 27 28  1  0
 27 43  1  0
 28 29  2  0
 28 42  1  0
 29 35  1  0
 29 30  1  0
 30 31  2  0
 30 33  1  0
 31 32  1  0
 33 34  1  0
 33 40  1  0
 33 41  1  0
 34 35  1  0
 34 38  1  0
 34 39  1  0
 35 36  1  0
 35 37  1  0
M  CHG  1  15  -1
M  END
>  <s_m_source_file>  (1) 
ligprep_mcl1.smi

>  <i_m_source_file_index>  (1) 
22

>  <i_lp_mmshare_version>  (1) 
53161

>  <i_f3d_flags>  (1) 
0

>  <s_epik_input>  (1) 
W2NIXTFbY0hdW2NIXVtjSF1jKGMxMiljKGMoW25IXTIpQyg9TylbT0hdKVtDSDJdW0NIMl1bQ0gyXU9jKFtjSF1bY0hdMylbY0hdYyhjMzQpW0NIMl1bQ0gyXVtDSDJdNA==

>  <s_epik_cmdline>  (1) 
J2VwaWtfcHl0aG9uJywgJy1waHQnLCAnMC4wJywgJy1waCcsICc3LjQnLCAnLXRuJywgJzgnLCAnLW1hJywgJzUwMCcsICctaW1hZScsICc8aW5maWxlLm1hZT4nLCAnLW9tYWUnLCAnPG91dGZpbGUubWFlPic=

>  <r_lp_tautomer_probability>  (1) 
1

>  <r_epik_Ionization_Penalty>  (1) 
  0.0005

>  <r_epik_Ionization_Penalty_Charging>  (1) 
  0.0005

>  <r_epik_Ionization_Penalty_Neutral>  (1) 
  0.0000

>  <r_epik_State_Penalty>  (1) 
 -0.0000

>  <r_epik_Charging_Adjusted_Penalty>  (1) 
0.000454155

>  <i_epik_Tot_Q>  (1) 
-1

>  <i_epik_Tot_abs_Q>  (1) 
1

>  <s_lp_Force_Field>  (1) 
S-OPLS

>  <r_lp_Energy>  (1) 
36.3914

>  <b_lp_Chiralities_Consistent>  (1) 
1

>  <s_lp_Variant>  (1) 
lig_46-1

>  <s_i_glide_gridfile>  (1) 
glide-grid_MCL1-4HW3

>  <i_i_glide_lignum>  (1) 
22

>  <i_i_glide_rotatable_bonds>  (1) 
6

>  <r_i_docking_score>  (1) 
-9.49237374227673

>  <r_i_glide_ligand_efficiency>  (1) 
-0.379694949691069

>  <r_i_glide_ligand_efficiency_sa>  (1) 
-1.11023476681529

>  <r_i_glide_ligand_efficiency_ln>  (1) 
-2.24997704040585

>  <r_i_glide_gscore>  (1) 
-9.49237374227673

>  <r_i_glide_lipo>  (1) 
-5.54163156242163

>  <r_i_glide_hbond>  (1) 
-0.364729426650727

>  <r_i_glide_metal>  (1) 
-0

>  <r_i_glide_rewards>  (1) 
-2.01636576154576

>  <r_i_glide_evdw>  (1) 
-41.8188858032227

>  <r_i_glide_ecoul>  (1) 
-2.98179507255554

>  <r_i_glide_erotb>  (1) 
1.01201724312696

>  <r_i_glide_esite>  (1) 
-0.0434506837411074

>  <r_i_glide_emodel>  (1) 
-78.5608167297498

>  <r_i_glide_energy>  (1) 
-44.8006808757782

>  <r_i_glide_einternal>  (1) 
0.146230891346931

>  <i_i_glide_confnum>  (1) 
1

>  <i_i_glide_posenum>  (1) 
27

>  <r_i_glide_eff_state_penalty>  (1) 
-0

>  <r_i_glide_rmsd>  (1) 
0.083969333592143

>  <s_glide_core_constrain_type>  (1) 
snapped_core_restrain

$$$$
