lig_32
     RDKit          3D

 41 43  0  0  1  0  0  0  0  0999 V2000
   68.0899  -36.4199   28.5324 H   0  0  0  0  0  0  0  0  0  0  0  0
   68.7696  -35.7042   28.0911 C   0  0  0  0  0  0  0  0  0  0  0  0
   70.0985  -35.6183   28.5499 C   0  0  0  0  0  0  0  0  0  0  0  0
   70.9788  -34.6825   27.9725 C   0  0  0  0  0  0  0  0  0  0  0  0
   70.5191  -33.8428   26.9386 C   0  0  0  0  0  0  0  0  0  0  0  0
   69.1859  -33.9209   26.4440 C   0  0  0  0  0  0  0  0  0  0  0  0
   68.3224  -34.8658   27.0500 C   0  0  0  0  0  0  0  0  0  0  0  0
   67.3008  -34.9453   26.7059 H   0  0  0  0  0  0  0  0  0  0  0  0
   69.0406  -32.9480   25.3948 C   0  0  0  0  0  0  0  0  0  0  0  0
   70.2501  -32.2988   25.2703 C   0  0  0  0  0  0  0  0  0  0  0  0
   71.1208  -32.8359   26.2068 N   0  0  0  0  0  0  0  0  0  0  0  0
   72.0627  -32.4803   26.2923 H   0  0  0  0  0  0  0  0  0  0  0  0
   70.7481  -31.1921   24.4087 C   0  0  0  0  0  0  0  0  0  0  0  0
   71.8458  -30.6588   24.6831 O   0  0  0  0  0  0  0  0  0  0  0  0
   70.0736  -30.7964   23.4307 O   0  0  0  0  0  1  0  0  0  0  0  0
   67.7906  -32.6484   24.6165 C   0  0  0  0  0  0  0  0  0  0  0  0
   67.0765  -33.4679   24.7012 H   0  0  0  0  0  0  0  0  0  0  0  0
   68.0302  -32.5787   23.5558 H   0  0  0  0  0  0  0  0  0  0  0  0
   67.1282  -31.3357   25.0677 C   0  0  0  0  0  0  0  0  0  0  0  0
   66.3552  -31.0570   24.3516 H   0  0  0  0  0  0  0  0  0  0  0  0
   67.8650  -30.5339   25.0429 H   0  0  0  0  0  0  0  0  0  0  0  0
   66.5034  -31.4062   26.4667 C   0  0  0  0  0  0  0  0  0  0  0  0
   66.2279  -30.4002   26.7888 H   0  0  0  0  0  0  0  0  0  0  0  0
   67.2091  -31.8129   27.1911 H   0  0  0  0  0  0  0  0  0  0  0  0
   65.3475  -32.2228   26.3781 O   0  0  0  0  0  0  0  0  0  0  0  0
   64.4846  -32.2507   27.4447 C   0  0  0  0  0  0  0  0  0  0  0  0
   63.1860  -32.7348   27.1932 C   0  0  0  0  0  0  0  0  0  0  0  0
   62.2566  -32.8575   28.2416 C   0  0  0  0  0  0  0  0  0  0  0  0
   62.6124  -32.4782   29.5524 C   0  0  0  0  0  0  0  0  0  0  0  0
   63.8983  -31.9584   29.8045 C   0  0  0  0  0  0  0  0  0  0  0  0
   64.8327  -31.8449   28.7564 C   0  0  0  0  0  0  0  0  0  0  0  0
   65.8181  -31.4687   28.9850 H   0  0  0  0  0  0  0  0  0  0  0  0
   64.1793  -31.6667   30.8058 H   0  0  0  0  0  0  0  0  0  0  0  0
   61.6260  -32.6535   30.6884 C   0  0  0  0  0  0  0  0  0  0  0  0
   61.7312  -31.8573   31.4267 H   0  0  0  0  0  0  0  0  0  0  0  0
   61.8061  -33.6104   31.1781 H   0  0  0  0  0  0  0  0  0  0  0  0
   60.5976  -32.6539   30.3254 H   0  0  0  0  0  0  0  0  0  0  0  0
   61.2725  -33.2542   28.0371 H   0  0  0  0  0  0  0  0  0  0  0  0
   62.9114  -33.0472   26.1959 H   0  0  0  0  0  0  0  0  0  0  0  0
   71.9969  -34.6048   28.3221 H   0  0  0  0  0  0  0  0  0  0  0  0
   70.4396  -36.2674   29.3442 H   0  0  0  0  0  0  0  0  0  0  0  0
  1  2  1  0
  2  7  2  0
  2  3  1  0
  3  4  2  0
  3 41  1  0
  4  5  1  0
  4 40  1  0
  5 11  1  0
  5  6  2  0
  6  7  1  0
  6  9  1  0
  7  8  1  0
  9 10  2  0
  9 16  1  0
 10 11  1  0
 10 13  1  0
 11 12  1  0
 13 14  2  0
 13 15  1  0
 16 17  1  0
 16 18  1  0
 16 19  1  0
 19 20  1  0
 19 21  1  0
 19 22  1  0
 22 23  1  0
 22 24  1  0
 22 25  1  0
 25 26  1  0
 26 31  1  0
 26 27  2  0
 27 28  1  0
 27 39  1  0
 28 29  2  0
 28 38  1  0
 29 30  1  0
 29 34  1  0
 30 31  2  0
 30 33  1  0
 31 32  1  0
 34 35  1  0
 34 36  1  0
 34 37  1  0
M  CHG  1  15  -1
M  END
>  <s_m_source_file>  (1) 
ligprep_mcl1.smi

>  <i_m_source_file_index>  (1) 
8

>  <i_lp_mmshare_version>  (1) 
53161

>  <i_f3d_flags>  (1) 
0

>  <s_epik_input>  (1) 
W2NIXTFbY0hdW2NIXVtjSF1jKGMxMiljKGMoW25IXTIpQyg9TylbT0hdKVtDSDJdW0NIMl1bQ0gyXU9jM1tjSF1bY0hdYyhbQ0gzXSlbY0hdW2NIXTM=

>  <s_epik_cmdline>  (1) 
J2VwaWtfcHl0aG9uJywgJy1waHQnLCAnMC4wJywgJy1waCcsICc3LjQnLCAnLXRuJywgJzgnLCAnLW1hJywgJzUwMCcsICctaW1hZScsICc8aW5maWxlLm1hZT4nLCAnLW9tYWUnLCAnPG91dGZpbGUubWFlPic=

>  <r_lp_tautomer_probability>  (1) 
1

>  <r_epik_Ionization_Penalty>  (1) 
  0.0005

>  <r_epik_Ionization_Penalty_Charging>  (1) 
  0.0005

>  <r_epik_Ionization_Penalty_Neutral>  (1) 
  0.0000

>  <r_epik_State_Penalty>  (1) 
 -0.0000

>  <r_epik_Charging_Adjusted_Penalty>  (1) 
0.000454155

>  <i_epik_Tot_Q>  (1) 
-1

>  <i_epik_Tot_abs_Q>  (1) 
1

>  <s_lp_Force_Field>  (1) 
S-OPLS

>  <r_lp_Energy>  (1) 
32.6067

>  <b_lp_Chiralities_Consistent>  (1) 
1

>  <s_lp_Variant>  (1) 
lig_32-1

>  <s_i_glide_gridfile>  (1) 
glide-grid_MCL1-4HW3

>  <i_i_glide_lignum>  (1) 
8

>  <i_i_glide_rotatable_bonds>  (1) 
6

>  <r_i_docking_score>  (1) 
-8.50189089472525

>  <r_i_glide_ligand_efficiency>  (1) 
-0.369647430205446

>  <r_i_glide_ligand_efficiency_sa>  (1) 
-1.05122811984955

>  <r_i_glide_ligand_efficiency_ln>  (1) 
-2.05583430922901

>  <r_i_glide_gscore>  (1) 
-8.50189089472525

>  <r_i_glide_lipo>  (1) 
-4.82223196649819

>  <r_i_glide_hbond>  (1) 
-0.408224806598405

>  <r_i_glide_metal>  (1) 
-0

>  <r_i_glide_rewards>  (1) 
-1.98509493497294

>  <r_i_glide_evdw>  (1) 
-38.3433990478516

>  <r_i_glide_ecoul>  (1) 
-3.26107120513916

>  <r_i_glide_erotb>  (1) 
1.16744936544065

>  <r_i_glide_esite>  (1) 
-0.0474579189329131

>  <r_i_glide_emodel>  (1) 
-69.2646548914072

>  <r_i_glide_energy>  (1) 
-41.6044702529907

>  <r_i_glide_einternal>  (1) 
2.65060663223267

>  <i_i_glide_confnum>  (1) 
5

>  <i_i_glide_posenum>  (1) 
48

>  <r_i_glide_eff_state_penalty>  (1) 
-0

>  <r_i_glide_rmsd>  (1) 
0.102533375423064

>  <s_glide_core_constrain_type>  (1) 
snapped_core_restrain

$$$$
