lig_28
     RDKit          3D

 41 43  0  0  1  0  0  0  0  0999 V2000
   67.9831  -36.3226   28.5518 H   0  0  0  0  0  0  0  0  0  0  0  0
   68.6821  -35.6104   28.1381 C   0  0  0  0  0  0  0  0  0  0  0  0
   69.9728  -35.4977   28.6884 C   0  0  0  0  0  0  0  0  0  0  0  0
   70.8815  -34.5629   28.1554 C   0  0  0  0  0  0  0  0  0  0  0  0
   70.4857  -33.7529   27.0751 C   0  0  0  0  0  0  0  0  0  0  0  0
   69.1919  -33.8527   26.4930 C   0  0  0  0  0  0  0  0  0  0  0  0
   68.2984  -34.7975   27.0543 C   0  0  0  0  0  0  0  0  0  0  0  0
   67.3051  -34.8907   26.6420 H   0  0  0  0  0  0  0  0  0  0  0  0
   69.1072  -32.8954   25.4214 C   0  0  0  0  0  0  0  0  0  0  0  0
   70.3168  -32.2343   25.3716 C   0  0  0  0  0  0  0  0  0  0  0  0
   71.1308  -32.7599   26.3622 N   0  0  0  0  0  0  0  0  0  0  0  0
   72.0647  -32.3984   26.4964 H   0  0  0  0  0  0  0  0  0  0  0  0
   70.8787  -31.1275   24.5486 C   0  0  0  0  0  0  0  0  0  0  0  0
   71.9910  -30.6522   24.8599 O   0  0  0  0  0  0  0  0  0  0  0  0
   70.2444  -30.6726   23.5699 O   0  0  0  0  0  1  0  0  0  0  0  0
   67.9030  -32.6381   24.5686 C   0  0  0  0  0  0  0  0  0  0  0  0
   67.1974  -33.4672   24.6352 H   0  0  0  0  0  0  0  0  0  0  0  0
   68.1961  -32.5759   23.5196 H   0  0  0  0  0  0  0  0  0  0  0  0
   67.1880  -31.3445   24.9698 C   0  0  0  0  0  0  0  0  0  0  0  0
   66.4221  -31.1156   24.2320 H   0  0  0  0  0  0  0  0  0  0  0  0
   67.8961  -30.5192   24.9248 H   0  0  0  0  0  0  0  0  0  0  0  0
   66.5403  -31.3648   26.3530 C   0  0  0  0  0  0  0  0  0  0  0  0
   66.2268  -30.3483   26.5827 H   0  0  0  0  0  0  0  0  0  0  0  0
   67.2938  -31.6846   27.0625 H   0  0  0  0  0  0  0  0  0  0  0  0
   65.4147  -32.2318   26.3804 O   0  0  0  0  0  0  0  0  0  0  0  0
   64.5437  -32.2336   27.4603 C   0  0  0  0  0  0  0  0  0  0  0  0
   63.2600  -32.7465   27.1751 C   0  0  0  0  0  0  0  0  0  0  0  0
   62.2734  -32.8777   28.1714 C   0  0  0  0  0  0  0  0  0  0  0  0
   62.5578  -32.4704   29.4849 C   0  0  0  0  0  0  0  0  0  0  0  0
   63.8130  -31.9198   29.7889 C   0  0  0  0  0  0  0  0  0  0  0  0
   64.8072  -31.8089   28.8008 C   0  0  0  0  0  0  0  0  0  0  0  0
   66.1081  -31.2228   29.2765 C   0  0  0  0  0  0  0  0  0  0  0  0
   66.9380  -31.9198   29.1544 H   0  0  0  0  0  0  0  0  0  0  0  0
   66.2422  -30.3201   28.6932 H   0  0  0  0  0  0  0  0  0  0  0  0
   66.0813  -30.9266   30.3263 H   0  0  0  0  0  0  0  0  0  0  0  0
   64.0050  -31.6044   30.8047 H   0  0  0  0  0  0  0  0  0  0  0  0
   61.8095  -32.5657   30.2588 H   0  0  0  0  0  0  0  0  0  0  0  0
   61.3052  -33.2849   27.9194 H   0  0  0  0  0  0  0  0  0  0  0  0
   63.0342  -33.0685   26.1683 H   0  0  0  0  0  0  0  0  0  0  0  0
   71.8736  -34.4608   28.5704 H   0  0  0  0  0  0  0  0  0  0  0  0
   70.2626  -36.1241   29.5195 H   0  0  0  0  0  0  0  0  0  0  0  0
  1  2  1  0
  2  7  2  0
  2  3  1  0
  3  4  2  0
  3 41  1  0
  4  5  1  0
  4 40  1  0
  5 11  1  0
  5  6  2  0
  6  7  1  0
  6  9  1  0
  7  8  1  0
  9 10  2  0
  9 16  1  0
 10 11  1  0
 10 13  1  0
 11 12  1  0
 13 14  2  0
 13 15  1  0
 16 17  1  0
 16 18  1  0
 16 19  1  0
 19 20  1  0
 19 21  1  0
 19 22  1  0
 22 23  1  0
 22 24  1  0
 22 25  1  0
 25 26  1  0
 26 31  1  0
 26 27  2  0
 27 28  1  0
 27 39  1  0
 28 29  2  0
 28 38  1  0
 29 30  1  0
 29 37  1  0
 30 31  2  0
 30 36  1  0
 31 32  1  0
 32 33  1  0
 32 34  1  0
 32 35  1  0
M  CHG  1  15  -1
M  END
>  <s_m_source_file>  (1) 
ligprep_mcl1.smi

>  <i_m_source_file_index>  (1) 
4

>  <i_lp_mmshare_version>  (1) 
53161

>  <i_f3d_flags>  (1) 
0

>  <s_epik_input>  (1) 
W2NIXTFbY0hdW2NIXVtjSF1jKGMxMiljKGMoW25IXTIpQyg9TylbT0hdKVtDSDJdW0NIMl1bQ0gyXU9jM1tjSF1bY0hdW2NIXVtjSF1jM1tDSDNd

>  <s_epik_cmdline>  (1) 
J2VwaWtfcHl0aG9uJywgJy1waHQnLCAnMC4wJywgJy1waCcsICc3LjQnLCAnLXRuJywgJzgnLCAnLW1hJywgJzUwMCcsICctaW1hZScsICc8aW5maWxlLm1hZT4nLCAnLW9tYWUnLCAnPG91dGZpbGUubWFlPic=

>  <r_lp_tautomer_probability>  (1) 
1

>  <r_epik_Ionization_Penalty>  (1) 
  0.0005

>  <r_epik_Ionization_Penalty_Charging>  (1) 
  0.0005

>  <r_epik_Ionization_Penalty_Neutral>  (1) 
  0.0000

>  <r_epik_State_Penalty>  (1) 
 -0.0000

>  <r_epik_Charging_Adjusted_Penalty>  (1) 
0.000454828

>  <i_epik_Tot_Q>  (1) 
-1

>  <i_epik_Tot_abs_Q>  (1) 
1

>  <s_lp_Force_Field>  (1) 
S-OPLS

>  <r_lp_Energy>  (1) 
34.9348

>  <b_lp_Chiralities_Consistent>  (1) 
1

>  <s_lp_Variant>  (1) 
lig_28-1

>  <s_i_glide_gridfile>  (1) 
glide-grid_MCL1-4HW3

>  <i_i_glide_lignum>  (1) 
4

>  <i_i_glide_rotatable_bonds>  (1) 
6

>  <r_i_docking_score>  (1) 
-8.28114856648028

>  <r_i_glide_ligand_efficiency>  (1) 
-0.360049937673056

>  <r_i_glide_ligand_efficiency_sa>  (1) 
-1.02393412777584

>  <r_i_glide_ligand_efficiency_ln>  (1) 
-2.0024568126786

>  <r_i_glide_gscore>  (1) 
-8.28114856648028

>  <r_i_glide_lipo>  (1) 
-4.83783383747925

>  <r_i_glide_hbond>  (1) 
-0.474008366558091

>  <r_i_glide_metal>  (1) 
-0

>  <r_i_glide_rewards>  (1) 
-1.95339116000886

>  <r_i_glide_evdw>  (1) 
-33.2564392089844

>  <r_i_glide_ecoul>  (1) 
-3.09814286231995

>  <r_i_glide_erotb>  (1) 
1.16744936544065

>  <r_i_glide_esite>  (1) 
-0.055821178077511

>  <r_i_glide_emodel>  (1) 
-56.5130592966207

>  <r_i_glide_energy>  (1) 
-36.3545820713043

>  <r_i_glide_einternal>  (1) 
0.436520308256149

>  <i_i_glide_confnum>  (1) 
5

>  <i_i_glide_posenum>  (1) 
25

>  <r_i_glide_eff_state_penalty>  (1) 
-0

>  <r_i_glide_rmsd>  (1) 
0.110049445541004

>  <s_glide_core_constrain_type>  (1) 
snapped_core_restrain

$$$$
