lig_26
  xed2sdf           3D
 
 43 46  0  0  0  0  0  0  0  0999 V2000
   68.7176  -35.6964   28.0318 C   0  0  0  0  0  0  0  0  0  0  0  0
   70.0501  -35.5799   28.4953 C   0  0  0  0  0  0  0  0  0  0  0  0
   70.9152  -34.6126   27.9394 C   0  0  0  0  0  0  0  0  0  0  0  0
   70.4125  -33.7826   26.9283 C   0  0  0  0  0  0  0  0  0  0  0  0
   69.1156  -33.8905   26.4819 C   0  0  0  0  0  0  0  0  0  0  0  0
   68.2365  -34.8433   27.0126 C   0  0  0  0  0  0  0  0  0  0  0  0
   68.9195  -32.9066   25.4434 C   0  0  0  0  0  0  0  0  0  0  0  0
   70.1712  -32.2880   25.3617 C   0  0  0  0  0  0  0  0  0  0  0  0
   71.1010  -32.7992   26.2652 O   0  0  0  0  0  0  0  0  0  0  0  0
   70.5341  -31.1820   24.4060 C   0  0  0  0  0  0  0  0  0  0  0  0
   69.6923  -30.7998   23.6080 O   0  5  0  0  0  0  0  0  0  0  0  0
   71.6620  -30.7100   24.4561 O   0  0  0  0  0  0  0  0  0  0  0  0
   67.7060  -32.5597   24.6108 C   0  0  0  0  0  0  0  0  0  0  0  0
   67.0251  -31.2525   25.0897 C   0  0  0  0  0  0  0  0  0  0  0  0
   66.5356  -31.3295   26.5530 C   0  0  0  0  0  0  0  0  0  0  0  0
   65.2435  -31.9675   26.5995 O   0  0  0  0  0  0  0  0  0  0  0  0
   64.6309  -32.1725   27.8200 C   0  0  0  0  0  0  0  0  0  0  0  0
   65.1941  -31.6076   28.9774 C   0  0  0  0  0  0  0  0  0  0  0  0
   64.6347  -31.8647   30.2392 C   0  0  0  0  0  0  0  0  0  0  0  0
   63.5200  -32.7071   30.3456 C   0  0  0  0  0  0  0  0  0  0  0  0
   62.9336  -33.2568   29.1949 C   0  0  0  0  0  0  0  0  0  0  0  0
   61.8141  -34.0979   29.3260 C   0  0  0  0  0  0  0  0  0  0  0  0
   61.1950  -34.6211   28.1820 C   0  0  0  0  0  0  0  0  0  0  0  0
   61.7036  -34.3258   26.9050 C   0  0  0  0  0  0  0  0  0  0  0  0
   62.8575  -33.5324   26.7777 C   0  0  0  0  0  0  0  0  0  0  0  0
   63.4725  -32.9751   27.9186 C   0  0  0  0  0  0  0  0  0  0  0  0
   68.1121  -36.3860   28.4290 H   0  0  0  0  0  0  0  0  0  0  0  0
   70.3807  -36.1868   29.2182 H   0  0  0  0  0  0  0  0  0  0  0  0
   71.8595  -34.5236   28.2564 H   0  0  0  0  0  0  0  0  0  0  0  0
   67.2966  -34.9184   26.6797 H   0  0  0  0  0  0  0  0  0  0  0  0
   68.0290  -32.4463   23.4609 H   0  0  0  0  0  0  0  0  0  0  0  0
   66.9148  -33.4575   24.6992 H   0  0  0  0  0  0  0  0  0  0  0  0
   67.8385  -30.3733   25.0157 H   0  0  0  0  0  0  0  0  0  0  0  0
   66.1138  -30.9815   24.3563 H   0  0  0  0  0  0  0  0  0  0  0  0
   67.3229  -31.9054   27.2513 H   0  0  0  0  0  0  0  0  0  0  0  0
   66.4084  -30.2013   26.9432 H   0  0  0  0  0  0  0  0  0  0  0  0
   66.0091  -31.0339   28.9121 H   0  0  0  0  0  0  0  0  0  0  0  0
   65.0411  -31.4634   31.0600 H   0  0  0  0  0  0  0  0  0  0  0  0
   63.1326  -32.9079   31.2454 H   0  0  0  0  0  0  0  0  0  0  0  0
   61.4511  -34.3106   30.2332 H   0  0  0  0  0  0  0  0  0  0  0  0
   60.3898  -35.2068   28.2746 H   0  0  0  0  0  0  0  0  0  0  0  0
   61.2593  -34.6984   26.0902 H   0  0  0  0  0  0  0  0  0  0  0  0
   63.2326  -33.3464   25.8698 H   0  0  0  0  0  0  0  0  0  0  0  0
  1  2  2  0
  1  6  1  0
  2  3  1  0
  3  4  2  0
  4  5  1  0
  4  9  1  0
  5  6  2  0
  5  7  1  0
  7  8  2  0
  7 13  1  0
  8  9  1  0
  8 10  1  0
 10 11  1  0
 10 12  2  0
 13 14  1  0
 14 15  1  0
 15 16  1  0
 16 17  1  0
 17 18  2  0
 18 19  1  0
 19 20  2  0
 20 21  1  0
 21 22  2  0
 22 23  1  0
 23 24  2  0
 24 25  1  0
 25 26  2  0
 26 17  1  0
 26 21  1  0
  1 27  1  0
  2 28  1  0
  3 29  1  0
  6 30  1  0
 13 31  1  0
 13 32  1  0
 14 33  1  0
 14 34  1  0
 15 35  1  0
 15 36  1  0
 18 37  1  0
 19 38  1  0
 20 39  1  0
 22 40  1  0
 23 41  1  0
 24 42  1  0
 25 43  1  0
M  CHG  1  11  -1
M  END
>  <s_m_source_file>
ligprep_mcl1.smi

>  <i_m_source_file_index>
41

>  <i_lp_mmshare_version>
53161

>  <i_f3d_flags>
0

>  <s_epik_input>
W2NIXTFbY0hdW2NIXVtjSF1jKGMxMiljKGMobzIpQyg9TylbT0hdKVtDSDJdW0NIMl1bQ0gyXU9jM1tjSF1jKFtDSDNdKWMoQ2wpYyhbY0hdMylbQ0gzXQ==

>  <s_epik_cmdline>
J2VwaWtfcHl0aG9uJywgJy1waHQnLCAnMC4wJywgJy1waCcsICc3LjQnLCAnLXRuJywgJzgnLCAnLW1hJywgJzUwMCcsICctaW1hZScsICc8aW5maWxlLm1hZT4nLCAnLW9tYWUnLCAnPG91dGZpbGUubWFlPic=

>  <r_lp_tautomer_probability>
1

>  <r_epik_Ionization_Penalty>
  0.0001

>  <r_epik_Ionization_Penalty_Charging>
  0.0001

>  <r_epik_Ionization_Penalty_Neutral>
  0.0000

>  <r_epik_State_Penalty>
0

>  <r_epik_Charging_Adjusted_Penalty>
9.05897e-05

>  <i_epik_Tot_Q>
-1

>  <i_epik_Tot_abs_Q>
1

>  <s_lp_Force_Field>
S-OPLS

>  <r_lp_Energy>
34.3377

>  <b_lp_Chiralities_Consistent>
1

>  <s_lp_Variant>
lig_67-1

>  <s_i_glide_gridfile>
glide-grid_MCL1-4HW3

>  <i_i_glide_lignum>
41

>  <i_i_glide_rotatable_bonds>
6

>  <r_i_docking_score>
-9.50447169545832

>  <r_i_glide_ligand_efficiency>
-0.380178867818333

>  <r_i_glide_ligand_efficiency_sa>
-1.11164975200174

>  <r_i_glide_ligand_efficiency_ln>
-2.25284461785628

>  <r_i_glide_gscore>
-9.50447169545832

>  <r_i_glide_lipo>
-5.4930308440449

>  <r_i_glide_hbond>
-0.403661706799135

>  <r_i_glide_metal>
0

>  <r_i_glide_rewards>
-1.80521596499172

>  <r_i_glide_evdw>
-44.088680267334

>  <r_i_glide_ecoul>
-3.01171326637268

>  <r_i_glide_erotb>
0.897399033488196

>  <r_i_glide_esite>
-0.0437712097881575

>  <r_i_glide_emodel>
-82.4062294353434

>  <r_i_glide_energy>
-47.1003935337067

>  <r_i_glide_einternal>
3.99256038665771

>  <i_i_glide_confnum>
2

>  <i_i_glide_posenum>
26

>  <r_i_glide_eff_state_penalty>
0

>  <r_i_glide_rmsd>
0.0758599245994409

>  <s_glide_core_constrain_type>
snapped_core_restrain

>  <Total Formal Charge>
-1

>  <Favorite_cresset>
false

>  <MW_cresset>
345.4

>  <#Atoms_cresset>
26

>  <SlogP_cresset>
4.7

>  <TPSA_cresset>
62.5

>  <Flexibility_cresset>
4.8

>  <Rof5_cresset>
0

>  <Confs_cresset>
0

>  <Poses_cresset>
0

>  <_cresset_fieldpoints2>
 2
    -5      70.345703     -36.666912      25.452316     -3.2982
    -5      65.463394     -34.921844      29.233727     -4.3485
    -5      64.410324     -35.760117      28.523670     -4.3244
    -5      71.567818     -29.401146      23.062214    -11.8553
    -5      72.837509     -31.484940      25.753323    -10.9755
    -5      70.736435     -29.467932      22.713146    -11.6777
    -5      63.729317     -30.712257      25.439642     -4.7559
    -5      61.109688     -31.151936      28.060158     -4.7853
    -6      65.781731     -35.394730      25.259920      2.3637
    -6      72.616997     -36.029987      30.059170      2.3848
    -6      67.771637     -29.971880      28.878323      4.1314
    -6      64.390961     -31.739662      33.240913      2.3113
    -6      61.605610     -34.001663      32.391140      3.2564
    -7      68.343178     -35.749962      23.733498     -1.9219
    -7      72.926056     -36.089508      30.242367     -0.9578
    -7      68.340530     -32.487244      29.492119     -3.3439
    -7      65.265488     -35.086243      25.518213     -2.8842
    -7      70.101082     -33.112846      22.086857     -1.6944
    -7      67.960342     -30.090057      22.218548     -1.7689
    -7      73.268539     -31.767555      26.249336     -1.6649
    -7      70.449326     -36.467670      24.848690     -2.0015
    -7      64.476898     -32.979202      23.917252     -2.5177
    -7      64.173477     -32.178177      33.608253     -0.9993
    -7      63.513680     -30.843792      24.859581     -2.3782
    -7      65.492905     -35.372952      28.898125     -3.2422
    -7      59.177437     -35.642899      30.741409     -0.9963
    -7      59.132324     -36.420399      26.167679     -0.9614
    -7      61.722252     -30.233192      28.450588     -2.2163
    -8      64.042870     -32.448235      29.104492      6.9226
    -8      62.340157     -33.796654      28.059132      6.9968
    -8      67.742050     -32.106205      25.546322      5.4715
    -8      68.720230     -32.945637      25.562065      5.2677
    -8      69.550415     -34.750290      27.490170      6.8998

$$$$
