lig_35
     RDKit          3D

 41 43  0  0  1  0  0  0  0  0999 V2000
   68.0607  -36.5057   28.4467 H   0  0  0  0  0  0  0  0  0  0  0  0
   68.7411  -35.7769   28.0305 C   0  0  0  0  0  0  0  0  0  0  0  0
   70.0546  -35.6749   28.5286 C   0  0  0  0  0  0  0  0  0  0  0  0
   70.9362  -34.7193   27.9870 C   0  0  0  0  0  0  0  0  0  0  0  0
   70.4958  -33.8782   26.9459 C   0  0  0  0  0  0  0  0  0  0  0  0
   69.1759  -33.9648   26.4189 C   0  0  0  0  0  0  0  0  0  0  0  0
   68.3080  -34.9274   26.9904 C   0  0  0  0  0  0  0  0  0  0  0  0
   67.2983  -35.0125   26.6190 H   0  0  0  0  0  0  0  0  0  0  0  0
   69.0447  -32.9756   25.3817 C   0  0  0  0  0  0  0  0  0  0  0  0
   70.2532  -32.3209   25.2897 C   0  0  0  0  0  0  0  0  0  0  0  0
   71.1070  -32.8624   26.2387 N   0  0  0  0  0  0  0  0  0  0  0  0
   72.0444  -32.5005   26.3476 H   0  0  0  0  0  0  0  0  0  0  0  0
   70.7653  -31.1984   24.4556 C   0  0  0  0  0  0  0  0  0  0  0  0
   71.8467  -30.6548   24.7751 O   0  0  0  0  0  0  0  0  0  0  0  0
   70.1165  -30.7982   23.4628 O   0  0  0  0  0  1  0  0  0  0  0  0
   67.8072  -32.6530   24.5922 C   0  0  0  0  0  0  0  0  0  0  0  0
   67.0758  -33.4560   24.6696 H   0  0  0  0  0  0  0  0  0  0  0  0
   68.0572  -32.5808   23.5318 H   0  0  0  0  0  0  0  0  0  0  0  0
   67.1601  -31.3312   25.0440 C   0  0  0  0  0  0  0  0  0  0  0  0
   66.3810  -31.0514   24.3351 H   0  0  0  0  0  0  0  0  0  0  0  0
   67.9039  -30.5356   25.0100 H   0  0  0  0  0  0  0  0  0  0  0  0
   66.5509  -31.3909   26.4513 C   0  0  0  0  0  0  0  0  0  0  0  0
   66.2869  -30.3818   26.7744 H   0  0  0  0  0  0  0  0  0  0  0  0
   67.2566  -31.8021   27.1724 H   0  0  0  0  0  0  0  0  0  0  0  0
   65.3954  -32.2020   26.3685 O   0  0  0  0  0  0  0  0  0  0  0  0
   64.5234  -32.2100   27.4282 C   0  0  0  0  0  0  0  0  0  0  0  0
   63.2346  -32.7156   27.1783 C   0  0  0  0  0  0  0  0  0  0  0  0
   62.2974  -32.8302   28.2174 C   0  0  0  0  0  0  0  0  0  0  0  0
   62.6404  -32.4216   29.5181 C   0  0  0  0  0  0  0  0  0  0  0  0
   63.9095  -31.8553   29.7765 C   0  0  0  0  0  0  0  0  0  0  0  0
   64.8529  -31.7643   28.7316 C   0  0  0  0  0  0  0  0  0  0  0  0
   65.8324  -31.3641   28.9458 H   0  0  0  0  0  0  0  0  0  0  0  0
   64.2787  -31.3668   31.1648 C   0  0  0  0  0  0  0  0  0  0  0  0
   65.2206  -30.8147   31.1545 H   0  0  0  0  0  0  0  0  0  0  0  0
   64.3856  -32.2120   31.8460 H   0  0  0  0  0  0  0  0  0  0  0  0
   63.5051  -30.7049   31.5548 H   0  0  0  0  0  0  0  0  0  0  0  0
   61.4886  -32.6519   30.7782 Cl  0  0  0  0  0  0  0  0  0  0  0  0
   61.3241  -33.2515   28.0181 H   0  0  0  0  0  0  0  0  0  0  0  0
   62.9758  -33.0535   26.1846 H   0  0  0  0  0  0  0  0  0  0  0  0
   71.9426  -34.6324   28.3660 H   0  0  0  0  0  0  0  0  0  0  0  0
   70.3831  -36.3265   29.3262 H   0  0  0  0  0  0  0  0  0  0  0  0
  1  2  1  0
  2  7  2  0
  2  3  1  0
  3  4  2  0
  3 41  1  0
  4  5  1  0
  4 40  1  0
  5 11  1  0
  5  6  2  0
  6  7  1  0
  6  9  1  0
  7  8  1  0
  9 10  2  0
  9 16  1  0
 10 11  1  0
 10 13  1  0
 11 12  1  0
 13 14  2  0
 13 15  1  0
 16 17  1  0
 16 18  1  0
 16 19  1  0
 19 20  1  0
 19 21  1  0
 19 22  1  0
 22 23  1  0
 22 24  1  0
 22 25  1  0
 25 26  1  0
 26 31  1  0
 26 27  2  0
 27 28  1  0
 27 39  1  0
 28 29  2  0
 28 38  1  0
 29 30  1  0
 29 37  1  0
 30 31  2  0
 30 33  1  0
 31 32  1  0
 33 34  1  0
 33 35  1  0
 33 36  1  0
M  CHG  1  15  -1
M  END
>  <s_m_source_file>  (1) 
ligprep_mcl1.smi

>  <i_m_source_file_index>  (1) 
11

>  <i_lp_mmshare_version>  (1) 
53161

>  <i_f3d_flags>  (1) 
0

>  <s_epik_input>  (1) 
W2NIXTFbY0hdW2NIXVtjSF1jKGMxMiljKGMoW25IXTIpQyg9TylbT0hdKVtDSDJdW0NIMl1bQ0gyXU9jM1tjSF1bY0hdYyhDbCljKFtjSF0zKVtDSDNd

>  <s_epik_cmdline>  (1) 
J2VwaWtfcHl0aG9uJywgJy1waHQnLCAnMC4wJywgJy1waCcsICc3LjQnLCAnLXRuJywgJzgnLCAnLW1hJywgJzUwMCcsICctaW1hZScsICc8aW5maWxlLm1hZT4nLCAnLW9tYWUnLCAnPG91dGZpbGUubWFlPic=

>  <r_lp_tautomer_probability>  (1) 
1

>  <r_epik_Ionization_Penalty>  (1) 
  0.0005

>  <r_epik_Ionization_Penalty_Charging>  (1) 
  0.0005

>  <r_epik_Ionization_Penalty_Neutral>  (1) 
  0.0000

>  <r_epik_State_Penalty>  (1) 
 -0.0000

>  <r_epik_Charging_Adjusted_Penalty>  (1) 
0.000518745

>  <i_epik_Tot_Q>  (1) 
-1

>  <i_epik_Tot_abs_Q>  (1) 
1

>  <s_lp_Force_Field>  (1) 
S-OPLS

>  <r_lp_Energy>  (1) 
33.8968

>  <b_lp_Chiralities_Consistent>  (1) 
1

>  <s_lp_Variant>  (1) 
lig_35-1

>  <s_i_glide_gridfile>  (1) 
glide-grid_MCL1-4HW3

>  <i_i_glide_lignum>  (1) 
11

>  <i_i_glide_rotatable_bonds>  (1) 
6

>  <r_i_docking_score>  (1) 
-9.02347453125589

>  <r_i_glide_ligand_efficiency>  (1) 
-0.375978105468995

>  <r_i_glide_ligand_efficiency_sa>  (1) 
-1.08450852096643

>  <r_i_glide_ligand_efficiency_ln>  (1) 
-2.15973151559525

>  <r_i_glide_gscore>  (1) 
-9.02347453125589

>  <r_i_glide_lipo>  (1) 
-5.15894676804638

>  <r_i_glide_hbond>  (1) 
-0.420545604266378

>  <r_i_glide_metal>  (1) 
-0

>  <r_i_glide_rewards>  (1) 
-1.80085345427995

>  <r_i_glide_evdw>  (1) 
-41.7662124633789

>  <r_i_glide_ecoul>  (1) 
-3.1840341091156

>  <r_i_glide_erotb>  (1) 
0.968452154908552

>  <r_i_glide_esite>  (1) 
-0.0456651200354573

>  <r_i_glide_emodel>  (1) 
-76.4515871305577

>  <r_i_glide_energy>  (1) 
-44.9502465724945

>  <r_i_glide_einternal>  (1) 
1.61527526378632

>  <i_i_glide_confnum>  (1) 
5

>  <i_i_glide_posenum>  (1) 
22

>  <r_i_glide_eff_state_penalty>  (1) 
-0

>  <r_i_glide_rmsd>  (1) 
0.0801659943205655

>  <s_glide_core_constrain_type>  (1) 
snapped_core_restrain

$$$$
