lig_38
  xed2sdf           3D
 
 48 51  0  0  0  0  0  0  0  0999 V2000
   65.5950  -32.3316   25.5722 O   0  0  0  0  0  0  0  0  0  0  0  0
   66.6776  -31.4209   25.7955 C   0  0  0  0  0  0  0  0  0  0  0  0
   67.3919  -31.2943   24.4413 C   0  0  0  0  0  0  0  0  0  0  0  0
   68.1085  -32.6116   24.0738 C   0  0  0  0  0  0  0  0  0  0  0  0
   69.2181  -32.8873   25.0481 C   0  0  0  0  0  0  0  0  0  0  0  0
   70.3917  -32.1206   25.0811 C   0  0  0  0  0  0  0  0  0  0  0  0
   71.1577  -32.5569   26.2088 N   0  0  0  0  0  0  0  0  0  0  0  0
   70.4373  -33.5596   26.8247 C   0  0  0  0  0  0  0  0  0  0  0  0
   69.2652  -33.7843   26.1725 C   0  0  0  0  0  0  0  0  0  0  0  0
   68.3440  -34.7363   26.6293 C   0  0  0  0  0  0  0  0  0  0  0  0
   68.6785  -35.4802   27.7837 C   0  0  0  0  0  0  0  0  0  0  0  0
   69.9062  -35.2519   28.4516 C   0  0  0  0  0  0  0  0  0  0  0  0
   70.8057  -34.2718   27.9745 C   0  0  0  0  0  0  0  0  0  0  0  0
   70.7265  -31.0186   24.1042 C   0  0  0  0  0  0  0  0  0  0  0  0
   69.9796  -30.8234   23.1565 O   0  5  0  0  0  0  0  0  0  0  0  0
   71.7364  -30.3599   24.2968 O   0  0  0  0  0  0  0  0  0  0  0  0
   64.7156  -32.6677   26.5627 C   0  0  0  0  0  0  0  0  0  0  0  0
   65.0406  -32.4779   27.9006 C   0  0  0  0  0  0  0  0  0  0  0  0
   64.0671  -32.6745   28.8988 C   0  0  0  0  0  0  0  0  0  0  0  0
   62.7989  -33.1804   28.5389 C   0  0  0  0  0  0  0  0  0  0  0  0
   62.4794  -33.3985   27.1927 C   0  0  0  0  0  0  0  0  0  0  0  0
   63.4317  -33.0824   26.2123 C   0  0  0  0  0  0  0  0  0  0  0  0
   64.3331  -32.2034   30.2646 C   0  0  0  0  0  0  0  0  0  0  0  0
   65.6546  -31.9696   30.6932 C   0  0  0  0  0  0  0  0  0  0  0  0
   65.9098  -31.3924   31.9377 C   0  0  0  0  0  0  0  0  0  0  0  0
   64.8341  -31.0066   32.7464 C   0  0  0  0  0  0  0  0  0  0  0  0
   63.5086  -31.2126   32.3180 C   0  0  0  0  0  0  0  0  0  0  0  0
   63.2603  -31.8269   31.0951 C   0  0  0  0  0  0  0  0  0  0  0  0
   66.2399  -30.3517   26.1196 H   0  0  0  0  0  0  0  0  0  0  0  0
   67.4332  -31.8211   26.6358 H   0  0  0  0  0  0  0  0  0  0  0  0
   66.6056  -31.0117   23.5788 H   0  0  0  0  0  0  0  0  0  0  0  0
   68.1918  -30.4051   24.5332 H   0  0  0  0  0  0  0  0  0  0  0  0
   67.3340  -33.5274   24.1007 H   0  0  0  0  0  0  0  0  0  0  0  0
   68.5545  -32.5376   22.9628 H   0  0  0  0  0  0  0  0  0  0  0  0
   71.9405  -32.2438   26.4618 H   0  0  0  0  0  0  0  0  0  0  0  0
   67.4790  -34.8879   26.1508 H   0  0  0  0  0  0  0  0  0  0  0  0
   68.0444  -36.1711   28.1312 H   0  0  0  0  0  0  0  0  0  0  0  0
   70.1354  -35.7830   29.2674 H   0  0  0  0  0  0  0  0  0  0  0  0
   71.6725  -34.0928   28.4400 H   0  0  0  0  0  0  0  0  0  0  0  0
   65.9425  -32.1292   28.1420 H   0  0  0  0  0  0  0  0  0  0  0  0
   62.1105  -33.3545   29.2416 H   0  0  0  0  0  0  0  0  0  0  0  0
   61.5755  -33.7387   26.9331 H   0  0  0  0  0  0  0  0  0  0  0  0
   63.1941  -33.1848   25.2462 H   0  0  0  0  0  0  0  0  0  0  0  0
   66.4232  -32.2196   30.1074 H   0  0  0  0  0  0  0  0  0  0  0  0
   66.8505  -31.2421   32.2421 H   0  0  0  0  0  0  0  0  0  0  0  0
   65.0083  -30.5785   33.6332 H   0  0  0  0  0  0  0  0  0  0  0  0
   62.7456  -30.9266   32.8978 H   0  0  0  0  0  0  0  0  0  0  0  0
   62.3177  -31.9653   30.7957 H   0  0  0  0  0  0  0  0  0  0  0  0
  1  2  1  0
  1 17  1  0
  2  3  1  0
  3  4  1  0
  4  5  1  0
  5  6  2  0
  5  9  1  0
  6  7  1  0
  6 14  1  0
  7  8  1  0
  8  9  2  0
  8 13  1  0
  9 10  1  0
 10 11  2  0
 11 12  1  0
 12 13  2  0
 14 15  1  0
 14 16  2  0
 17 18  2  0
 18 19  1  0
 19 20  2  0
 19 23  1  0
 20 21  1  0
 21 22  2  0
 22 17  1  0
 23 24  2  0
 24 25  1  0
 25 26  2  0
 26 27  1  0
 27 28  2  0
 28 23  1  0
  2 29  1  0
  2 30  1  0
  3 31  1  0
  3 32  1  0
  4 33  1  0
  4 34  1  0
  7 35  1  0
 10 36  1  0
 11 37  1  0
 12 38  1  0
 13 39  1  0
 18 40  1  0
 20 41  1  0
 21 42  1  0
 22 43  1  0
 24 44  1  0
 25 45  1  0
 26 46  1  0
 27 47  1  0
 28 48  1  0
M  CHG  1  15  -1
M  END
>  <s_m_source_file>
ligprep_mcl1.smi

>  <i_m_source_file_index>
3

>  <i_lp_mmshare_version>
53161

>  <i_f3d_flags>
0

>  <s_epik_input>
W2NIXTFbY0hdW2NIXVtjSF1bY0hdYzFPW0NIMl1bQ0gyXVtDSDJdYyhjKFtuSF0yKUMoPU8pW09IXSljKGMyMylbY0hdW2NIXVtjSF1bY0hdMw==

>  <s_epik_cmdline>
J2VwaWtfcHl0aG9uJywgJy1waHQnLCAnMC4wJywgJy1waCcsICc3LjQnLCAnLXRuJywgJzgnLCAnLW1hJywgJzUwMCcsICctaW1hZScsICc8aW5maWxlLm1hZT4nLCAnLW9tYWUnLCAnPG91dGZpbGUubWFlPic=

>  <r_lp_tautomer_probability>
1

>  <r_epik_Ionization_Penalty>
  0.0006

>  <r_epik_Ionization_Penalty_Charging>
  0.0006

>  <r_epik_Ionization_Penalty_Neutral>
  0.0000

>  <r_epik_State_Penalty>
0

>  <r_epik_Charging_Adjusted_Penalty>
0.000566237

>  <i_epik_Tot_Q>
-1

>  <i_epik_Tot_abs_Q>
1

>  <s_lp_Force_Field>
S-OPLS

>  <r_lp_Energy>
35.4449

>  <b_lp_Chiralities_Consistent>
1

>  <s_lp_Variant>
lig_27-1

>  <s_i_glide_gridfile>
glide-grid_MCL1-4HW3

>  <i_i_glide_lignum>
3

>  <i_i_glide_rotatable_bonds>
6

>  <r_i_docking_score>
-6.71832588685996

>  <r_i_glide_ligand_efficiency>
-0.305378449402725

>  <r_i_glide_ligand_efficiency_sa>
-0.855682425079342

>  <r_i_glide_ligand_efficiency_ln>
-1.6422039036395

>  <r_i_glide_gscore>
-6.71832588685996

>  <r_i_glide_lipo>
-4.50865224199557

>  <r_i_glide_hbond>
-0.415794626771979

>  <r_i_glide_metal>
0

>  <r_i_glide_rewards>
-1.97692635503657

>  <r_i_glide_evdw>
-35.7976875305176

>  <r_i_glide_ecoul>
-3.41090202331543

>  <r_i_glide_erotb>
2.53318583634431

>  <r_i_glide_esite>
-0.0486188193769556

>  <r_i_glide_emodel>
-58.7957750258844

>  <r_i_glide_energy>
-39.208589553833

>  <r_i_glide_einternal>
0.0738022774457932

>  <i_i_glide_confnum>
156

>  <i_i_glide_posenum>
130

>  <r_i_glide_eff_state_penalty>
0

>  <r_i_glide_rmsd>
0.094142993973318

>  <s_glide_core_constrain_type>
snapped_core_restrain

>  <Total Formal Charge>
-1

>  <Favorite_cresset>
false

>  <MW_cresset>
370.4

>  <#Atoms_cresset>
28

>  <SlogP_cresset>
5.5

>  <TPSA_cresset>
65.1

>  <Flexibility_cresset>
4.9

>  <Rof5_cresset>
1

>  <Confs_cresset>
0

>  <Poses_cresset>
0

>  <_cresset_fieldpoints2>
 2
    -5      65.029373     -32.931076      23.519466     -4.7991
    -5      63.030869     -30.083414      27.887583     -4.3402
    -5      64.316467     -29.227562      29.895813     -4.3950
    -5      71.612595     -29.176785      22.796862    -11.5313
    -5      70.897110     -29.375755      22.303677    -11.6325
    -5      70.642639     -36.382858      25.426193     -4.5195
    -5      69.657272     -30.981508      27.867203     -2.1212
    -5      64.752090     -35.578026      27.973291     -3.8098
    -5      64.630936     -34.247200      32.566612     -4.0561
    -5      68.763535     -32.425201      29.041786     -2.2109
    -6      73.320114     -32.407158      27.778961      7.8366
    -6      60.448063     -32.913605      30.488548      3.6920
    -6      67.800102     -31.266907      28.757433      4.3252
    -6      62.915764     -29.918354      34.996849      2.1924
    -6      67.595734     -30.294743      34.189457      2.1988
    -7      65.590866     -35.208359      24.685219     -2.6580
    -7      64.031128     -30.353067      24.203636     -2.1029
    -7      68.428009     -31.885241      28.882332     -3.9162
    -7      65.533310     -29.370358      28.564623     -2.6141
    -7      68.395844     -30.252892      21.551632     -1.7488
    -7      68.763596     -35.849060      23.466236     -1.8993
    -7      70.806274     -33.037872      21.840057     -1.7088
    -7      73.607246     -32.200111      24.483135     -1.4812
    -7      64.907021     -33.177612      23.095903     -2.4279
    -7      72.214935     -35.100319      30.946342     -0.9616
    -7      71.013443     -36.388344      25.054493     -2.0004
    -7      65.295319     -35.780365      27.910458     -2.8524
    -7      60.764614     -33.949390      24.307865     -0.9722
    -7      64.525604     -34.724579      32.454887     -1.9332
    -7      63.038010     -29.723404      35.333466     -0.9635
    -7      67.511948     -30.011787      34.595398     -0.9613
    -7      66.026016     -35.217476      29.652185     -2.8026
    -8      69.547974     -34.528389      27.314682      6.9336
    -8      63.736172     -32.911224      27.585808      6.9368
    -8      68.106903     -32.121727      25.002029      5.5648
    -8      68.933456     -32.825722      25.155769      5.3495
    -8      63.411926     -32.479858      29.733685      5.7063
    -8      64.980186     -32.284004      29.390932      5.7559
    -8      64.583023     -31.603127      31.498417      7.0246

$$$$
