lig_44
  xed2sdf           3D
 
 44 47  0  0  0  0  0  0  0  0999 V2000
   65.3892  -32.0655   26.6496 O   0  0  0  0  0  0  0  0  0  0  0  0
   66.5871  -31.2707   26.5504 C   0  0  0  0  0  0  0  0  0  0  0  0
   67.0412  -31.2104   25.0785 C   0  0  0  0  0  0  0  0  0  0  0  0
   67.6865  -32.5335   24.6207 C   0  0  0  0  0  0  0  0  0  0  0  0
   68.9058  -32.8403   25.4438 C   0  0  0  0  0  0  0  0  0  0  0  0
   70.1042  -32.1272   25.3105 C   0  0  0  0  0  0  0  0  0  0  0  0
   71.0212  -32.6547   26.2740 N   0  0  0  0  0  0  0  0  0  0  0  0
   70.3606  -33.6558   26.9593 C   0  0  0  0  0  0  0  0  0  0  0  0
   69.0873  -33.7905   26.5047 C   0  0  0  0  0  0  0  0  0  0  0  0
   68.2009  -34.7268   27.0501 C   0  0  0  0  0  0  0  0  0  0  0  0
   68.6751  -35.5550   28.0915 C   0  0  0  0  0  0  0  0  0  0  0  0
   70.0084  -35.4286   28.5531 C   0  0  0  0  0  0  0  0  0  0  0  0
   70.8740  -34.4631   27.9862 C   0  0  0  0  0  0  0  0  0  0  0  0
   70.3225  -31.0046   24.3249 C   0  0  0  0  0  0  0  0  0  0  0  0
   69.4208  -30.7336   23.5455 O   0  5  0  0  0  0  0  0  0  0  0  0
   71.3936  -30.4166   24.3343 O   0  0  0  0  0  0  0  0  0  0  0  0
   62.3895  -32.1697   31.8019 Cl  0  0  0  0  0  0  0  0  0  0  0  0
   63.2640  -32.2050   30.2780 C   0  0  0  0  0  0  0  0  0  0  0  0
   64.4375  -31.4533   30.1750 C   0  0  0  0  0  0  0  0  0  0  0  0
   65.1459  -31.4026   28.9618 C   0  0  0  0  0  0  0  0  0  0  0  0
   64.6891  -32.1203   27.8417 C   0  0  0  0  0  0  0  0  0  0  0  0
   63.5023  -32.8747   27.9377 C   0  0  0  0  0  0  0  0  0  0  0  0
   63.0044  -33.5651   26.8156 C   0  0  0  0  0  0  0  0  0  0  0  0
   61.8107  -34.2990   26.9063 C   0  0  0  0  0  0  0  0  0  0  0  0
   61.1102  -34.3477   28.1211 C   0  0  0  0  0  0  0  0  0  0  0  0
   61.5965  -33.6621   29.2457 C   0  0  0  0  0  0  0  0  0  0  0  0
   62.7895  -32.9230   29.1615 C   0  0  0  0  0  0  0  0  0  0  0  0
   66.3240  -30.1420   26.8640 H   0  0  0  0  0  0  0  0  0  0  0  0
   67.4374  -31.6934   27.2832 H   0  0  0  0  0  0  0  0  0  0  0  0
   66.1089  -30.9526   24.3672 H   0  0  0  0  0  0  0  0  0  0  0  0
   67.8403  -30.3208   24.9901 H   0  0  0  0  0  0  0  0  0  0  0  0
   66.8925  -33.4206   24.7705 H   0  0  0  0  0  0  0  0  0  0  0  0
   67.9759  -32.4777   23.4579 H   0  0  0  0  0  0  0  0  0  0  0  0
   71.8512  -32.3923   26.4036 H   0  0  0  0  0  0  0  0  0  0  0  0
   67.2636  -34.8088   26.7113 H   0  0  0  0  0  0  0  0  0  0  0  0
   68.0684  -36.2357   28.5020 H   0  0  0  0  0  0  0  0  0  0  0  0
   70.3386  -36.0221   29.2871 H   0  0  0  0  0  0  0  0  0  0  0  0
   71.8156  -34.3587   28.3066 H   0  0  0  0  0  0  0  0  0  0  0  0
   64.7691  -30.9390   30.9659 H   0  0  0  0  0  0  0  0  0  0  0  0
   65.9821  -30.8589   28.9025 H   0  0  0  0  0  0  0  0  0  0  0  0
   63.5001  -33.5328   25.9480 H   0  0  0  0  0  0  0  0  0  0  0  0
   61.4607  -34.7867   26.1066 H   0  0  0  0  0  0  0  0  0  0  0  0
   60.2606  -34.8712   28.1857 H   0  0  0  0  0  0  0  0  0  0  0  0
   61.0916  -33.6969   30.1081 H   0  0  0  0  0  0  0  0  0  0  0  0
  1  2  1  0
  1 21  1  0
  2  3  1  0
  3  4  1  0
  4  5  1  0
  5  6  2  0
  5  9  1  0
  6  7  1  0
  6 14  1  0
  7  8  1  0
  8  9  2  0
  8 13  1  0
  9 10  1  0
 10 11  2  0
 11 12  1  0
 12 13  2  0
 14 15  1  0
 14 16  2  0
 17 18  1  0
 18 19  2  0
 19 20  1  0
 20 21  2  0
 21 22  1  0
 22 23  2  0
 23 24  1  0
 24 25  2  0
 25 26  1  0
 26 27  2  0
 27 18  1  0
 27 22  1  0
  2 28  1  0
  2 29  1  0
  3 30  1  0
  3 31  1  0
  4 32  1  0
  4 33  1  0
  7 34  1  0
 10 35  1  0
 11 36  1  0
 12 37  1  0
 13 38  1  0
 19 39  1  0
 20 40  1  0
 23 41  1  0
 24 42  1  0
 25 43  1  0
 26 44  1  0
M  CHG  1  15  -1
M  END
>  <s_m_source_file>
ligprep_mcl1.smi

>  <i_m_source_file_index>
3

>  <i_lp_mmshare_version>
53161

>  <i_f3d_flags>
0

>  <s_epik_input>
W2NIXTFbY0hdW2NIXVtjSF1bY0hdYzFPW0NIMl1bQ0gyXVtDSDJdYyhjKFtuSF0yKUMoPU8pW09IXSljKGMyMylbY0hdW2NIXVtjSF1bY0hdMw==

>  <s_epik_cmdline>
J2VwaWtfcHl0aG9uJywgJy1waHQnLCAnMC4wJywgJy1waCcsICc3LjQnLCAnLXRuJywgJzgnLCAnLW1hJywgJzUwMCcsICctaW1hZScsICc8aW5maWxlLm1hZT4nLCAnLW9tYWUnLCAnPG91dGZpbGUubWFlPic=

>  <r_lp_tautomer_probability>
1

>  <r_epik_Ionization_Penalty>
  0.0006

>  <r_epik_Ionization_Penalty_Charging>
  0.0006

>  <r_epik_Ionization_Penalty_Neutral>
  0.0000

>  <r_epik_State_Penalty>
0

>  <r_epik_Charging_Adjusted_Penalty>
0.000566237

>  <i_epik_Tot_Q>
-1

>  <i_epik_Tot_abs_Q>
1

>  <s_lp_Force_Field>
S-OPLS

>  <r_lp_Energy>
35.4449

>  <b_lp_Chiralities_Consistent>
1

>  <s_lp_Variant>
lig_27-1

>  <s_i_glide_gridfile>
glide-grid_MCL1-4HW3

>  <i_i_glide_lignum>
3

>  <i_i_glide_rotatable_bonds>
6

>  <r_i_docking_score>
-6.71832588685996

>  <r_i_glide_ligand_efficiency>
-0.305378449402725

>  <r_i_glide_ligand_efficiency_sa>
-0.855682425079342

>  <r_i_glide_ligand_efficiency_ln>
-1.6422039036395

>  <r_i_glide_gscore>
-6.71832588685996

>  <r_i_glide_lipo>
-4.50865224199557

>  <r_i_glide_hbond>
-0.415794626771979

>  <r_i_glide_metal>
0

>  <r_i_glide_rewards>
-1.97692635503657

>  <r_i_glide_evdw>
-35.7976875305176

>  <r_i_glide_ecoul>
-3.41090202331543

>  <r_i_glide_erotb>
2.53318583634431

>  <r_i_glide_esite>
-0.0486188193769556

>  <r_i_glide_emodel>
-58.7957750258844

>  <r_i_glide_energy>
-39.208589553833

>  <r_i_glide_einternal>
0.0738022774457932

>  <i_i_glide_confnum>
156

>  <i_i_glide_posenum>
130

>  <r_i_glide_eff_state_penalty>
0

>  <r_i_glide_rmsd>
0.094142993973318

>  <s_glide_core_constrain_type>
snapped_core_restrain

>  <Total Formal Charge>
-1

>  <Favorite_cresset>
false

>  <MW_cresset>
378.8

>  <#Atoms_cresset>
27

>  <SlogP_cresset>
5.7

>  <TPSA_cresset>
65.1

>  <Flexibility_cresset>
4.8

>  <Rof5_cresset>
1

>  <Confs_cresset>
0

>  <Poses_cresset>
0

>  <_cresset_fieldpoints2>
 2
    -5      70.234406     -29.310637      22.556484    -11.4995
    -5      71.087280     -29.167229      22.916531    -11.4281
    -5      70.189606     -36.393909      25.401962     -4.5179
    -5      68.015648     -33.142700      29.601460     -3.9958
    -5      61.090778     -31.079407      27.338783     -4.2697
    -5      63.496147     -30.721981      33.700859     -1.5097
    -5      63.759769     -30.913635      25.329472     -4.3011
    -5      65.809105     -34.490917      29.444664     -4.0136
    -5      64.085182     -35.712898      28.932667     -4.0444
    -6      67.560722     -29.578205      28.829872      4.2495
    -6      65.538513     -35.259274      25.388515      1.8975
    -6      59.240387     -36.093880      26.498180      2.1347
    -6      73.423447     -32.692627      27.453796      7.8109
    -7      63.557014     -30.742737      25.029076     -2.4920
    -7      70.061821     -33.025608      22.062321     -1.6937
    -7      64.450279     -32.872719      23.903461     -2.5002
    -7      68.299881     -35.732700      23.810177     -1.9271
    -7      65.327568     -35.220802      25.418749     -2.6964
    -7      73.143097     -32.385269      24.160027     -1.4884
    -7      72.867065     -35.855721      30.354303     -0.9588
    -7      68.570580     -37.452400      30.892338     -0.9662
    -7      70.469330     -36.358345      24.921467     -2.0195
    -7      67.692398     -30.196127      22.081772     -1.7508
    -7      65.643433     -34.926430      29.414465     -3.1631
    -7      61.868511     -29.999657      27.857031     -2.3082
    -7      68.246025     -32.405998      29.552212     -3.3255
    -7      59.152229     -36.261986      26.106081     -0.9618
    -8      69.513794     -34.620872      27.532921      6.9284
    -8      63.946640     -32.172028      29.078114      6.9263
    -8      62.311653     -33.603783      28.039936      7.0056
    -8      67.794449     -32.044106      25.546825      5.5527
    -8      68.663925     -32.826736      25.568768      5.3383
    -8      62.407143     -32.715553      30.348194      5.6591

$$$$
