lig_36
     RDKit          3D

 44 46  0  0  1  0  0  0  0  0999 V2000
   67.9201  -36.4060   28.4606 H   0  0  0  0  0  0  0  0  0  0  0  0
   68.6282  -35.7025   28.0525 C   0  0  0  0  0  0  0  0  0  0  0  0
   69.9419  -35.6584   28.5580 C   0  0  0  0  0  0  0  0  0  0  0  0
   70.8631  -34.7392   28.0209 C   0  0  0  0  0  0  0  0  0  0  0  0
   70.4626  -33.8802   26.9795 C   0  0  0  0  0  0  0  0  0  0  0  0
   69.1474  -33.9197   26.4377 C   0  0  0  0  0  0  0  0  0  0  0  0
   68.2375  -34.8436   27.0052 C   0  0  0  0  0  0  0  0  0  0  0  0
   67.2251  -34.8902   26.6255 H   0  0  0  0  0  0  0  0  0  0  0  0
   69.0671  -32.9350   25.3890 C   0  0  0  0  0  0  0  0  0  0  0  0
   70.2930  -32.3073   25.3211 C   0  0  0  0  0  0  0  0  0  0  0  0
   71.1163  -32.8865   26.2740 N   0  0  0  0  0  0  0  0  0  0  0  0
   72.0651  -32.5593   26.3875 H   0  0  0  0  0  0  0  0  0  0  0  0
   70.8494  -31.1910   24.5056 C   0  0  0  0  0  0  0  0  0  0  0  0
   70.1879  -30.7084   23.5581 O   0  0  0  0  0  0  0  0  0  0  0  0
   71.9808  -30.7440   24.7942 O   0  0  0  0  0  1  0  0  0  0  0  0
   67.8526  -32.6102   24.5637 C   0  0  0  0  0  0  0  0  0  0  0  0
   68.1328  -32.5011   23.5155 H   0  0  0  0  0  0  0  0  0  0  0  0
   67.1348  -33.4306   24.5884 H   0  0  0  0  0  0  0  0  0  0  0  0
   67.1631  -31.3155   25.0246 C   0  0  0  0  0  0  0  0  0  0  0  0
   67.8830  -30.4966   25.0094 H   0  0  0  0  0  0  0  0  0  0  0  0
   66.3893  -31.0470   24.3072 H   0  0  0  0  0  0  0  0  0  0  0  0
   66.5389  -31.3948   26.4247 C   0  0  0  0  0  0  0  0  0  0  0  0
   67.2514  -31.7932   27.1519 H   0  0  0  0  0  0  0  0  0  0  0  0
   66.2557  -30.3915   26.7495 H   0  0  0  0  0  0  0  0  0  0  0  0
   65.3908  -32.2249   26.3502 O   0  0  0  0  0  0  0  0  0  0  0  0
   64.5228  -32.2333   27.4159 C   0  0  0  0  0  0  0  0  0  0  0  0
   63.2255  -32.7265   27.1766 C   0  0  0  0  0  0  0  0  0  0  0  0
   62.2921  -32.8307   28.2204 C   0  0  0  0  0  0  0  0  0  0  0  0
   62.6489  -32.4299   29.5216 C   0  0  0  0  0  0  0  0  0  0  0  0
   63.9334  -31.8850   29.7795 C   0  0  0  0  0  0  0  0  0  0  0  0
   64.8661  -31.7930   28.7179 C   0  0  0  0  0  0  0  0  0  0  0  0
   65.8496  -31.3923   28.9112 H   0  0  0  0  0  0  0  0  0  0  0  0
   64.2875  -31.4179   31.1907 C   0  0  0  0  0  0  0  0  0  0  0  0
   63.6500  -30.5652   31.4274 H   0  0  0  0  0  0  0  0  0  0  0  0
   64.0251  -32.2044   31.8992 H   0  0  0  0  0  0  0  0  0  0  0  0
   65.7568  -31.0255   31.4116 C   0  0  0  0  0  0  0  0  0  0  0  0
   65.9251  -30.7423   32.4501 H   0  0  0  0  0  0  0  0  0  0  0  0
   66.4291  -31.8540   31.1820 H   0  0  0  0  0  0  0  0  0  0  0  0
   66.0440  -30.1838   30.7809 H   0  0  0  0  0  0  0  0  0  0  0  0
   61.4864  -32.6438   30.7806 Cl  0  0  0  0  0  0  0  0  0  0  0  0
   61.3040  -33.2210   28.0207 H   0  0  0  0  0  0  0  0  0  0  0  0
   62.9499  -33.0539   26.1826 H   0  0  0  0  0  0  0  0  0  0  0  0
   71.8689  -34.6897   28.4101 H   0  0  0  0  0  0  0  0  0  0  0  0
   70.2372  -36.3253   29.3538 H   0  0  0  0  0  0  0  0  0  0  0  0
  1  2  1  0
  2  7  2  0
  2  3  1  0
  3  4  2  0
  3 44  1  0
  4  5  1  0
  4 43  1  0
  5 11  1  0
  5  6  2  0
  6  7  1  0
  6  9  1  0
  7  8  1  0
  9 10  2  0
  9 16  1  0
 10 11  1  0
 10 13  1  0
 11 12  1  0
 13 14  2  0
 13 15  1  0
 16 17  1  0
 16 18  1  0
 16 19  1  0
 19 20  1  0
 19 21  1  0
 19 22  1  0
 22 23  1  0
 22 24  1  0
 22 25  1  0
 25 26  1  0
 26 31  1  0
 26 27  2  0
 27 28  1  0
 27 42  1  0
 28 29  2  0
 28 41  1  0
 29 30  1  0
 29 40  1  0
 30 31  2  0
 30 33  1  0
 31 32  1  0
 33 34  1  0
 33 35  1  0
 33 36  1  0
 36 37  1  0
 36 38  1  0
 36 39  1  0
M  CHG  1  15  -1
M  END
>  <s_m_source_file>  (1) 
ligprep_mcl1.smi

>  <i_m_source_file_index>  (1) 
12

>  <i_lp_mmshare_version>  (1) 
53161

>  <i_f3d_flags>  (1) 
0

>  <s_epik_input>  (1) 
W2NIXTFbY0hdW2NIXVtjSF1jKGMxMiljKGMoW25IXTIpQyg9TylbT0hdKVtDSDJdW0NIMl1bQ0gyXU9jM1tjSF1bY0hdYyhDbCljKFtjSF0zKVtDSDJdW0NIM10=

>  <s_epik_cmdline>  (1) 
J2VwaWtfcHl0aG9uJywgJy1waHQnLCAnMC4wJywgJy1waCcsICc3LjQnLCAnLXRuJywgJzgnLCAnLW1hJywgJzUwMCcsICctaW1hZScsICc8aW5maWxlLm1hZT4nLCAnLW9tYWUnLCAnPG91dGZpbGUubWFlPic=

>  <r_lp_tautomer_probability>  (1) 
1

>  <r_epik_Ionization_Penalty>  (1) 
  0.0005

>  <r_epik_Ionization_Penalty_Charging>  (1) 
  0.0005

>  <r_epik_Ionization_Penalty_Neutral>  (1) 
  0.0000

>  <r_epik_State_Penalty>  (1) 
 -0.0000

>  <r_epik_Charging_Adjusted_Penalty>  (1) 
0.000518745

>  <i_epik_Tot_Q>  (1) 
-1

>  <i_epik_Tot_abs_Q>  (1) 
1

>  <s_lp_Force_Field>  (1) 
S-OPLS

>  <r_lp_Energy>  (1) 
36.1789

>  <b_lp_Chiralities_Consistent>  (1) 
1

>  <s_lp_Variant>  (1) 
lig_36-1

>  <s_i_glide_gridfile>  (1) 
glide-grid_MCL1-4HW3

>  <i_i_glide_lignum>  (1) 
12

>  <i_i_glide_rotatable_bonds>  (1) 
7

>  <r_i_docking_score>  (1) 
-9.34615192296445

>  <r_i_glide_ligand_efficiency>  (1) 
-0.373846076918578

>  <r_i_glide_ligand_efficiency_sa>  (1) 
-1.09313255909833

>  <r_i_glide_ligand_efficiency_ln>  (1) 
-2.21531808731451

>  <r_i_glide_gscore>  (1) 
-9.34615192296445

>  <r_i_glide_lipo>  (1) 
-5.53208315619486

>  <r_i_glide_hbond>  (1) 
-0.424056585573127

>  <r_i_glide_metal>  (1) 
-0

>  <r_i_glide_rewards>  (1) 
-1.74807548436851

>  <r_i_glide_evdw>  (1) 
-43.9625778198242

>  <r_i_glide_ecoul>  (1) 
-2.97815608978271

>  <r_i_glide_erotb>  (1) 
1.05211810294781

>  <r_i_glide_esite>  (1) 
-0.0492024953171454

>  <r_i_glide_emodel>  (1) 
-79.8070750594374

>  <r_i_glide_energy>  (1) 
-46.9407339096069

>  <r_i_glide_einternal>  (1) 
3.33714985847473

>  <i_i_glide_confnum>  (1) 
22

>  <i_i_glide_posenum>  (1) 
40

>  <r_i_glide_eff_state_penalty>  (1) 
-0

>  <r_i_glide_rmsd>  (1) 
0.0904486387150788

>  <s_glide_core_constrain_type>  (1) 
snapped_core_restrain

$$$$
