lig_30
     RDKit          3D

 41 43  0  0  1  0  0  0  0  0999 V2000
   68.0060  -36.4149   28.5039 H   0  0  0  0  0  0  0  0  0  0  0  0
   68.6982  -35.7002   28.0839 C   0  0  0  0  0  0  0  0  0  0  0  0
   70.0196  -35.6291   28.5638 C   0  0  0  0  0  0  0  0  0  0  0  0
   70.9151  -34.6907   28.0179 C   0  0  0  0  0  0  0  0  0  0  0  0
   70.4831  -33.8357   26.9859 C   0  0  0  0  0  0  0  0  0  0  0  0
   69.1578  -33.8957   26.4689 C   0  0  0  0  0  0  0  0  0  0  0  0
   68.2747  -34.8421   27.0490 C   0  0  0  0  0  0  0  0  0  0  0  0
   67.2559  -34.9065   26.6925 H   0  0  0  0  0  0  0  0  0  0  0  0
   69.0418  -32.9102   25.4279 C   0  0  0  0  0  0  0  0  0  0  0  0
   70.2558  -32.2617   25.3430 C   0  0  0  0  0  0  0  0  0  0  0  0
   71.1088  -32.8271   26.2760 N   0  0  0  0  0  0  0  0  0  0  0  0
   72.0567  -32.4889   26.3669 H   0  0  0  0  0  0  0  0  0  0  0  0
   70.7848  -31.1444   24.5143 C   0  0  0  0  0  0  0  0  0  0  0  0
   70.1042  -30.6729   23.5746 O   0  0  0  0  0  0  0  0  0  0  0  0
   71.9131  -30.6732   24.7783 O   0  0  0  0  0  1  0  0  0  0  0  0
   67.8162  -32.6134   24.6191 C   0  0  0  0  0  0  0  0  0  0  0  0
   67.1079  -33.4380   24.6765 H   0  0  0  0  0  0  0  0  0  0  0  0
   68.0926  -32.5299   23.5719 H   0  0  0  0  0  0  0  0  0  0  0  0
   67.1314  -31.3111   25.0630 C   0  0  0  0  0  0  0  0  0  0  0  0
   66.3503  -31.0540   24.3495 H   0  0  0  0  0  0  0  0  0  0  0  0
   67.8511  -30.4935   25.0297 H   0  0  0  0  0  0  0  0  0  0  0  0
   66.5096  -31.3839   26.4643 C   0  0  0  0  0  0  0  0  0  0  0  0
   66.2210  -30.3794   26.7800 H   0  0  0  0  0  0  0  0  0  0  0  0
   67.2248  -31.7711   27.1915 H   0  0  0  0  0  0  0  0  0  0  0  0
   65.3677  -32.2215   26.3781 O   0  0  0  0  0  0  0  0  0  0  0  0
   64.5053  -32.2437   27.4456 C   0  0  0  0  0  0  0  0  0  0  0  0
   63.2054  -32.7302   27.1990 C   0  0  0  0  0  0  0  0  0  0  0  0
   62.2774  -32.8388   28.2517 C   0  0  0  0  0  0  0  0  0  0  0  0
   62.6252  -32.4128   29.5495 C   0  0  0  0  0  0  0  0  0  0  0  0
   63.9123  -31.8932   29.8010 C   0  0  0  0  0  0  0  0  0  0  0  0
   64.8542  -31.8231   28.7538 C   0  0  0  0  0  0  0  0  0  0  0  0
   65.8420  -31.4455   28.9724 H   0  0  0  0  0  0  0  0  0  0  0  0
   64.2842  -31.4169   31.1932 C   0  0  0  0  0  0  0  0  0  0  0  0
   63.3931  -31.2974   31.8112 H   0  0  0  0  0  0  0  0  0  0  0  0
   64.8056  -30.4595   31.1520 H   0  0  0  0  0  0  0  0  0  0  0  0
   64.9421  -32.1416   31.6781 H   0  0  0  0  0  0  0  0  0  0  0  0
   61.9055  -32.4870   30.3523 H   0  0  0  0  0  0  0  0  0  0  0  0
   61.2885  -33.2331   28.0573 H   0  0  0  0  0  0  0  0  0  0  0  0
   62.9275  -33.0538   26.2049 H   0  0  0  0  0  0  0  0  0  0  0  0
   71.9298  -34.6267   28.3858 H   0  0  0  0  0  0  0  0  0  0  0  0
   70.3401  -36.2882   29.3577 H   0  0  0  0  0  0  0  0  0  0  0  0
  1  2  1  0
  2  7  2  0
  2  3  1  0
  3  4  2  0
  3 41  1  0
  4  5  1  0
  4 40  1  0
  5 11  1  0
  5  6  2  0
  6  7  1  0
  6  9  1  0
  7  8  1  0
  9 10  2  0
  9 16  1  0
 10 11  1  0
 10 13  1  0
 11 12  1  0
 13 14  2  0
 13 15  1  0
 16 17  1  0
 16 18  1  0
 16 19  1  0
 19 20  1  0
 19 21  1  0
 19 22  1  0
 22 23  1  0
 22 24  1  0
 22 25  1  0
 25 26  1  0
 26 31  1  0
 26 27  2  0
 27 28  1  0
 27 39  1  0
 28 29  2  0
 28 38  1  0
 29 30  1  0
 29 37  1  0
 30 31  2  0
 30 33  1  0
 31 32  1  0
 33 34  1  0
 33 35  1  0
 33 36  1  0
M  CHG  1  15  -1
M  END
>  <s_m_source_file>  (1) 
ligprep_mcl1.smi

>  <i_m_source_file_index>  (1) 
6

>  <i_lp_mmshare_version>  (1) 
53161

>  <i_f3d_flags>  (1) 
0

>  <s_epik_input>  (1) 
W2NIXTFbY0hdW2NIXVtjSF1jKGMxMiljKGMoW25IXTIpQyg9TylbT0hdKVtDSDJdW0NIMl1bQ0gyXU9jM1tjSF1bY0hdW2NIXWMoW2NIXTMpW0NIM10=

>  <s_epik_cmdline>  (1) 
J2VwaWtfcHl0aG9uJywgJy1waHQnLCAnMC4wJywgJy1waCcsICc3LjQnLCAnLXRuJywgJzgnLCAnLW1hJywgJzUwMCcsICctaW1hZScsICc8aW5maWxlLm1hZT4nLCAnLW9tYWUnLCAnPG91dGZpbGUubWFlPic=

>  <r_lp_tautomer_probability>  (1) 
1

>  <r_epik_Ionization_Penalty>  (1) 
  0.0005

>  <r_epik_Ionization_Penalty_Charging>  (1) 
  0.0005

>  <r_epik_Ionization_Penalty_Neutral>  (1) 
  0.0000

>  <r_epik_State_Penalty>  (1) 
 -0.0000

>  <r_epik_Charging_Adjusted_Penalty>  (1) 
0.00045214

>  <i_epik_Tot_Q>  (1) 
-1

>  <i_epik_Tot_abs_Q>  (1) 
1

>  <s_lp_Force_Field>  (1) 
S-OPLS

>  <r_lp_Energy>  (1) 
34.4174

>  <b_lp_Chiralities_Consistent>  (1) 
1

>  <s_lp_Variant>  (1) 
lig_30-1

>  <s_i_glide_gridfile>  (1) 
glide-grid_MCL1-4HW3

>  <i_i_glide_lignum>  (1) 
6

>  <i_i_glide_rotatable_bonds>  (1) 
6

>  <r_i_docking_score>  (1) 
-8.54536064750542

>  <r_i_glide_ligand_efficiency>  (1) 
-0.371537419456757

>  <r_i_glide_ligand_efficiency_sa>  (1) 
-1.05660299786801

>  <r_i_glide_ligand_efficiency_ln>  (1) 
-2.06634568961318

>  <r_i_glide_gscore>  (1) 
-8.54536064750542

>  <r_i_glide_lipo>  (1) 
-4.85445528248256

>  <r_i_glide_hbond>  (1) 
-0.465161267353315

>  <r_i_glide_metal>  (1) 
-0

>  <r_i_glide_rewards>  (1) 
-1.96469313674155

>  <r_i_glide_evdw>  (1) 
-38.5309944152832

>  <r_i_glide_ecoul>  (1) 
-3.01443195343018

>  <r_i_glide_erotb>  (1) 
1.16744936544065

>  <r_i_glide_esite>  (1) 
-0.0497858125899518

>  <r_i_glide_emodel>  (1) 
-70.0305752252451

>  <r_i_glide_energy>  (1) 
-41.5454263687134

>  <r_i_glide_einternal>  (1) 
1.0262508392334

>  <i_i_glide_confnum>  (1) 
8

>  <i_i_glide_posenum>  (1) 
48

>  <r_i_glide_eff_state_penalty>  (1) 
-0

>  <r_i_glide_rmsd>  (1) 
0.095351168729501

>  <s_glide_core_constrain_type>  (1) 
snapped_core_restrain

$$$$
