lig_p38a_2h
     RDKit          3D

 46 49  0  0  1  0  0  0  0  0999 V2000
   20.8093    7.7956   30.7906 H   0  0  0  0  0  0  0  0  0  0  0  0
   21.6757    8.4324   30.8711 C   0  0  0  0  0  0  0  0  0  0  0  0
   22.8879    7.8367   30.8434 N   0  0  0  0  0  0  0  0  0  0  0  0
   23.9410    8.6438   30.9483 C   0  0  0  0  0  0  0  0  0  0  0  0
   25.1803    8.0310   30.9601 N   0  0  0  0  0  0  0  0  0  0  0  0
   25.1907    7.0171   30.9635 H   0  0  0  0  0  0  0  0  0  0  0  0
   26.4192    8.7171   31.3210 C   0  0  0  0  0  0  0  0  0  0  0  0
   26.5498    9.5702   30.6536 H   0  0  0  0  0  0  0  0  0  0  0  0
   26.3815    9.2170   32.7863 C   0  0  0  0  0  0  0  0  0  0  0  0
   25.5913    9.9469   32.9503 H   0  0  0  0  0  0  0  0  0  0  0  0
   26.1715    8.3836   33.4580 H   0  0  0  0  0  0  0  0  0  0  0  0
   27.7119    9.8622   33.1888 C   0  0  0  0  0  0  0  0  0  0  0  0
   27.9217   10.7451   32.5823 H   0  0  0  0  0  0  0  0  0  0  0  0
   27.6706   10.1897   34.2278 H   0  0  0  0  0  0  0  0  0  0  0  0
   28.7490    8.9046   33.0509 O   0  0  0  0  0  0  0  0  0  0  0  0
   28.9178    8.4687   31.7092 C   0  0  0  0  0  0  0  0  0  0  0  0
   29.2015    9.3091   31.0733 H   0  0  0  0  0  0  0  0  0  0  0  0
   29.7553    7.7728   31.7133 H   0  0  0  0  0  0  0  0  0  0  0  0
   27.6339    7.7879   31.1830 C   0  0  0  0  0  0  0  0  0  0  0  0
   27.4669    6.8692   31.7479 H   0  0  0  0  0  0  0  0  0  0  0  0
   27.7481    7.4930   30.1407 H   0  0  0  0  0  0  0  0  0  0  0  0
   23.9044    9.9699   31.0772 N   0  0  0  0  0  0  0  0  0  0  0  0
   22.7102   10.5895   31.1384 C   0  0  0  0  0  0  0  0  0  0  0  0
   21.5317    9.8247   31.0282 C   0  0  0  0  0  0  0  0  0  0  0  0
   20.2487   10.5111   31.0904 C   0  0  0  0  0  0  0  0  0  0  0  0
   19.3500    9.9249   30.9731 H   0  0  0  0  0  0  0  0  0  0  0  0
   20.2126   11.8420   31.2684 C   0  0  0  0  0  0  0  0  0  0  0  0
   18.7610   12.8214   31.3100 S   0  0  0  0  0  0  0  0  0  0  0  0
   17.3354   11.8281   31.2436 C   0  0  0  0  0  0  0  0  0  0  0  0
   16.4859   11.9423   30.1271 C   0  0  0  0  0  0  0  0  0  0  0  0
   16.7890   12.5250   29.2690 H   0  0  0  0  0  0  0  0  0  0  0  0
   15.2189   11.3379   30.1489 C   0  0  0  0  0  0  0  0  0  0  0  0
   14.5614   11.4229   29.2959 H   0  0  0  0  0  0  0  0  0  0  0  0
   14.8073   10.6372   31.2962 C   0  0  0  0  0  0  0  0  0  0  0  0
   13.8269   10.1864   31.3127 H   0  0  0  0  0  0  0  0  0  0  0  0
   15.6605   10.5433   32.4139 C   0  0  0  0  0  0  0  0  0  0  0  0
   15.3478   10.0105   33.2972 H   0  0  0  0  0  0  0  0  0  0  0  0
   16.9379   11.1150   32.3843 C   0  0  0  0  0  0  0  0  0  0  0  0
   17.7576   11.0167   33.4566 F   0  0  0  0  0  0  0  0  0  0  0  0
   21.4193   12.6699   31.4058 C   0  0  0  0  0  0  0  0  0  0  0  0
   21.3710   13.8907   31.5844 O   0  0  0  0  0  0  0  0  0  0  0  0
   22.6092   12.0068   31.3317 N   0  0  0  0  0  0  0  0  0  0  0  0
   23.8715   12.7572   31.4532 C   0  0  0  0  0  0  0  0  0  0  0  0
   24.5310   12.2821   32.1807 H   0  0  0  0  0  0  0  0  0  0  0  0
   24.3899   12.7681   30.4933 H   0  0  0  0  0  0  0  0  0  0  0  0
   23.7643   13.7928   31.7776 H   0  0  0  0  0  0  0  0  0  0  0  0
  1  2  1  0
  2 24  2  0
  2  3  1  0
  3  4  2  0
  4  5  1  0
  4 22  1  0
  5  6  1  0
  5  7  1  0
  7 19  1  0
  7  8  1  0
  7  9  1  0
  9 10  1  0
  9 11  1  0
  9 12  1  0
 12 13  1  0
 12 14  1  0
 12 15  1  0
 15 16  1  0
 16 17  1  0
 16 18  1  0
 16 19  1  0
 19 20  1  0
 19 21  1  0
 22 23  2  0
 23 42  1  0
 23 24  1  0
 24 25  1  0
 25 26  1  0
 25 27  2  0
 27 28  1  0
 27 40  1  0
 28 29  1  0
 29 38  1  0
 29 30  2  0
 30 31  1  0
 30 32  1  0
 32 33  1  0
 32 34  2  0
 34 35  1  0
 34 36  1  0
 36 37  1  0
 36 38  2  0
 38 39  1  0
 40 41  2  0
 40 42  1  0
 42 43  1  0
 43 44  1  0
 43 45  1  0
 43 46  1  0
M  END
>  <s_m_source_file>  (1) 
ligprep_p38.smi

>  <i_m_source_file_index>  (1) 
10

>  <i_lp_mmshare_version>  (1) 
53161

>  <i_f3d_flags>  (1) 
0

>  <s_epik_input>  (1) 
W0NIMl0xW0NIMl1PW0NIMl1bQ0gyXVtDSF0xW05IXWMobjIpbltjSF1jKGMyMylbY0hdYyhjKD1PKW4zW0NIM10pU2M0W2NIXVtjSF1bY0hdW2NIXWM0Rg==

>  <s_epik_cmdline>  (1) 
J2VwaWtfcHl0aG9uJywgJy1waHQnLCAnMC4wJywgJy1waCcsICc3LjQnLCAnLXRuJywgJzgnLCAnLW1hJywgJzUwMCcsICctaW1hZScsICc8aW5maWxlLm1hZT4nLCAnLW9tYWUnLCAnPG91dGZpbGUubWFlPic=

>  <r_lp_tautomer_probability>  (1) 
1

>  <r_epik_Ionization_Penalty>  (1) 
  0.0000

>  <r_epik_Ionization_Penalty_Charging>  (1) 
  0.0000

>  <r_epik_Ionization_Penalty_Neutral>  (1) 
  0.0000

>  <r_epik_State_Penalty>  (1) 
 -0.0000

>  <r_epik_Charging_Adjusted_Penalty>  (1) 
8.58232e-07

>  <i_epik_Tot_Q>  (1) 
0

>  <i_epik_Tot_abs_Q>  (1) 
0

>  <s_epik_Chemistry_Notes>  (1) 
This compound has an imine and may undergo hydrolysis.

>  <s_lp_Force_Field>  (1) 
S-OPLS

>  <r_lp_Energy>  (1) 
50.8282

>  <b_lp_Chiralities_Consistent>  (1) 
1

>  <s_lp_Variant>  (1) 
lig_p38a_2h-1

>  <s_i_glide_gridfile>  (1) 
glide-grid_P38-3FLY

>  <i_i_glide_lignum>  (1) 
11

>  <i_i_glide_rotatable_bonds>  (1) 
4

>  <r_i_docking_score>  (1) 
-9.62024704535687

>  <r_i_glide_ligand_efficiency>  (1) 
-0.356305446124329

>  <r_i_glide_ligand_efficiency_sa>  (1) 
-1.06891633719866

>  <r_i_glide_ligand_efficiency_ln>  (1) 
-2.2394349099911

>  <r_i_glide_gscore>  (1) 
-9.62024704535687

>  <r_i_glide_lipo>  (1) 
-3.09619393497726

>  <r_i_glide_hbond>  (1) 
-1.22748363056656

>  <r_i_glide_metal>  (1) 
-0

>  <r_i_glide_rewards>  (1) 
-2.29215051829835

>  <r_i_glide_evdw>  (1) 
-34.3723068237305

>  <r_i_glide_ecoul>  (1) 
-12.0475063323975

>  <r_i_glide_erotb>  (1) 
0.521322329531432

>  <r_i_glide_esite>  (1) 
0

>  <r_i_glide_emodel>  (1) 
-75.8126261079796

>  <r_i_glide_energy>  (1) 
-46.4198131561279

>  <r_i_glide_einternal>  (1) 
2.47103142738342

>  <i_i_glide_confnum>  (1) 
5

>  <i_i_glide_posenum>  (1) 
9

>  <r_i_glide_eff_state_penalty>  (1) 
-0

>  <r_i_glide_rmsd>  (1) 
0.109386181063736

>  <s_glide_core_constrain_type>  (1) 
snapped_core_restrain

$$$$
