lig_p38a_2v
     RDKit          3D

 35 37  0  0  1  0  0  0  0  0999 V2000
   20.7769    7.8677   30.6846 H   0  0  0  0  0  0  0  0  0  0  0  0
   21.6469    8.4883   30.8266 C   0  0  0  0  0  0  0  0  0  0  0  0
   22.8395    7.8624   30.8451 N   0  0  0  0  0  0  0  0  0  0  0  0
   23.9029    8.6381   31.0287 C   0  0  0  0  0  0  0  0  0  0  0  0
   25.1155    7.9911   31.0680 N   0  0  0  0  0  0  0  0  0  0  0  0
   25.1172    6.9803   31.0244 H   0  0  0  0  0  0  0  0  0  0  0  0
   26.3839    8.6872   31.1899 C   0  0  0  0  0  0  0  0  0  0  0  0
   27.2027    7.9676   31.2045 H   0  0  0  0  0  0  0  0  0  0  0  0
   26.4061    9.2728   32.1079 H   0  0  0  0  0  0  0  0  0  0  0  0
   26.5252    9.3727   30.3548 H   0  0  0  0  0  0  0  0  0  0  0  0
   23.9036    9.9599   31.1919 N   0  0  0  0  0  0  0  0  0  0  0  0
   22.7220   10.6101   31.1994 C   0  0  0  0  0  0  0  0  0  0  0  0
   21.5303    9.8793   31.0187 C   0  0  0  0  0  0  0  0  0  0  0  0
   20.2568   10.5836   31.0643 C   0  0  0  0  0  0  0  0  0  0  0  0
   19.3637    9.9960   30.9168 H   0  0  0  0  0  0  0  0  0  0  0  0
   20.2212   11.9152   31.2941 C   0  0  0  0  0  0  0  0  0  0  0  0
   19.0608   12.6510   31.3534 O   0  0  0  0  0  0  0  0  0  0  0  0
   17.8202   12.0804   31.2471 C   0  0  0  0  0  0  0  0  0  0  0  0
   17.2733   11.2990   32.2867 C   0  0  0  0  0  0  0  0  0  0  0  0
   18.0053   11.0310   33.3928 F   0  0  0  0  0  0  0  0  0  0  0  0
   15.9513   10.8208   32.1814 C   0  0  0  0  0  0  0  0  0  0  0  0
   15.5284   10.2236   32.9738 H   0  0  0  0  0  0  0  0  0  0  0  0
   15.1852   11.1011   31.0351 C   0  0  0  0  0  0  0  0  0  0  0  0
   13.9283   10.6147   30.9117 F   0  0  0  0  0  0  0  0  0  0  0  0
   15.7304   11.8863   30.0050 C   0  0  0  0  0  0  0  0  0  0  0  0
   15.1369   12.1023   29.1316 H   0  0  0  0  0  0  0  0  0  0  0  0
   17.0380   12.3928   30.1185 C   0  0  0  0  0  0  0  0  0  0  0  0
   17.4383   13.0244   29.3387 H   0  0  0  0  0  0  0  0  0  0  0  0
   21.4521   12.6937   31.4718 C   0  0  0  0  0  0  0  0  0  0  0  0
   21.3971   13.9073   31.6816 O   0  0  0  0  0  0  0  0  0  0  0  0
   22.6394   12.0239   31.4050 N   0  0  0  0  0  0  0  0  0  0  0  0
   23.9077   12.7594   31.5839 C   0  0  0  0  0  0  0  0  0  0  0  0
   23.8067   13.8414   31.6573 H   0  0  0  0  0  0  0  0  0  0  0  0
   24.4140   12.4280   32.4914 H   0  0  0  0  0  0  0  0  0  0  0  0
   24.5849   12.5730   30.7491 H   0  0  0  0  0  0  0  0  0  0  0  0
  1  2  1  0
  2 13  2  0
  2  3  1  0
  3  4  2  0
  4  5  1  0
  4 11  1  0
  5  6  1  0
  5  7  1  0
  7  8  1  0
  7  9  1  0
  7 10  1  0
 11 12  2  0
 12 31  1  0
 12 13  1  0
 13 14  1  0
 14 15  1  0
 14 16  2  0
 16 17  1  0
 16 29  1  0
 17 18  1  0
 18 27  1  0
 18 19  2  0
 19 20  1  0
 19 21  1  0
 21 22  1  0
 21 23  2  0
 23 24  1  0
 23 25  1  0
 25 26  1  0
 25 27  2  0
 27 28  1  0
 29 30  2  0
 29 31  1  0
 31 32  1  0
 32 33  1  0
 32 34  1  0
 32 35  1  0
M  END
>  <s_m_source_file>  (1) 
ligprep_p38.smi

>  <i_m_source_file_index>  (1) 
24

>  <i_lp_mmshare_version>  (1) 
53161

>  <i_f3d_flags>  (1) 
0

>  <s_epik_input>  (1) 
W0NIM11bTkhdYyhuMSluW2NIXWMoYzEyKVtjSF1jKGMoPU8pbjJbQ0gzXSlPYzNjKEYpW2NIXWMoRilbY0hdW2NIXTM=

>  <s_epik_cmdline>  (1) 
J2VwaWtfcHl0aG9uJywgJy1waHQnLCAnMC4wJywgJy1waCcsICc3LjQnLCAnLXRuJywgJzgnLCAnLW1hJywgJzUwMCcsICctaW1hZScsICc8aW5maWxlLm1hZT4nLCAnLW9tYWUnLCAnPG91dGZpbGUubWFlPic=

>  <r_lp_tautomer_probability>  (1) 
1

>  <r_epik_Ionization_Penalty>  (1) 
  0.0000

>  <r_epik_Ionization_Penalty_Charging>  (1) 
  0.0000

>  <r_epik_Ionization_Penalty_Neutral>  (1) 
  0.0000

>  <r_epik_State_Penalty>  (1) 
 -0.0000

>  <r_epik_Charging_Adjusted_Penalty>  (1) 
1.47076e-06

>  <i_epik_Tot_Q>  (1) 
0

>  <i_epik_Tot_abs_Q>  (1) 
0

>  <s_epik_Chemistry_Notes>  (1) 
This compound has an imine and may undergo hydrolysis.

>  <s_lp_Force_Field>  (1) 
S-OPLS

>  <r_lp_Energy>  (1) 
48.4196

>  <b_lp_Chiralities_Consistent>  (1) 
1

>  <s_lp_Variant>  (1) 
lig_p38a_2v-1

>  <s_i_glide_gridfile>  (1) 
glide-grid_P38-3FLY

>  <i_i_glide_lignum>  (1) 
25

>  <i_i_glide_rotatable_bonds>  (1) 
3

>  <r_i_docking_score>  (1) 
-10.424993808844

>  <r_i_glide_ligand_efficiency>  (1) 
-0.45326060038452

>  <r_i_glide_ligand_efficiency_sa>  (1) 
-1.289012853354

>  <r_i_glide_ligand_efficiency_ln>  (1) 
-2.52085803159604

>  <r_i_glide_gscore>  (1) 
-10.424993808844

>  <r_i_glide_lipo>  (1) 
-2.87631292611551

>  <r_i_glide_hbond>  (1) 
-1.2134032130181

>  <r_i_glide_metal>  (1) 
-0

>  <r_i_glide_rewards>  (1) 
-3.30087156046688

>  <r_i_glide_evdw>  (1) 
-38.1245002746582

>  <r_i_glide_ecoul>  (1) 
-11.2018527984619

>  <r_i_glide_erotb>  (1) 
0.552096824258745

>  <r_i_glide_esite>  (1) 
0

>  <r_i_glide_emodel>  (1) 
-82.7509639863477

>  <r_i_glide_energy>  (1) 
-49.3263530731201

>  <r_i_glide_einternal>  (1) 
1.09971942663378e-08

>  <i_i_glide_confnum>  (1) 
1

>  <i_i_glide_posenum>  (1) 
1

>  <r_i_glide_eff_state_penalty>  (1) 
-0

>  <r_i_glide_rmsd>  (1) 
0.0547091298328058

>  <s_glide_core_constrain_type>  (1) 
snapped_core_restrain

$$$$
