lig_p38a_2z
     RDKit          3D

 45 47  0  0  1  0  0  0  0  0999 V2000
   29.3083    7.3770   32.2565 H   0  0  0  0  0  0  0  0  0  0  0  0
   28.7878    8.1368   32.0334 O   0  0  0  0  0  0  0  0  0  0  0  0
   27.4820    7.6883   31.7646 C   0  0  0  0  0  0  0  0  0  0  0  0
   27.5393    6.9140   30.9868 H   0  0  0  0  0  0  0  0  0  0  0  0
   27.1247    7.1607   32.6533 H   0  0  0  0  0  0  0  0  0  0  0  0
   26.4479    8.7325   31.3176 C   0  0  0  0  0  0  0  0  0  0  0  0
   25.1423    8.0685   31.1804 N   0  0  0  0  0  0  0  0  0  0  0  0
   25.1540    7.0554   31.1814 H   0  0  0  0  0  0  0  0  0  0  0  0
   23.9062    8.6830   31.0255 C   0  0  0  0  0  0  0  0  0  0  0  0
   23.8604   10.0040   31.0730 N   0  0  0  0  0  0  0  0  0  0  0  0
   22.6698   10.6201   31.0896 C   0  0  0  0  0  0  0  0  0  0  0  0
   21.4898    9.8599   30.9720 C   0  0  0  0  0  0  0  0  0  0  0  0
   21.6346    8.4626   30.8605 C   0  0  0  0  0  0  0  0  0  0  0  0
   20.7689    7.8165   30.7786 H   0  0  0  0  0  0  0  0  0  0  0  0
   22.8554    7.8788   30.9087 N   0  0  0  0  0  0  0  0  0  0  0  0
   20.2097   10.5686   31.0328 C   0  0  0  0  0  0  0  0  0  0  0  0
   19.3156    9.9647   30.9367 H   0  0  0  0  0  0  0  0  0  0  0  0
   20.1690   11.9115   31.2268 C   0  0  0  0  0  0  0  0  0  0  0  0
   19.0116   12.6480   31.3316 O   0  0  0  0  0  0  0  0  0  0  0  0
   17.7711   12.0836   31.2253 C   0  0  0  0  0  0  0  0  0  0  0  0
   17.2290   11.3042   32.2669 C   0  0  0  0  0  0  0  0  0  0  0  0
   17.9687   11.0359   33.3630 F   0  0  0  0  0  0  0  0  0  0  0  0
   15.9123   10.8241   32.1664 C   0  0  0  0  0  0  0  0  0  0  0  0
   15.4943   10.2390   32.9723 H   0  0  0  0  0  0  0  0  0  0  0  0
   15.1508   11.0980   31.0194 C   0  0  0  0  0  0  0  0  0  0  0  0
   13.9118   10.5926   30.9091 F   0  0  0  0  0  0  0  0  0  0  0  0
   15.6921   11.8677   29.9767 C   0  0  0  0  0  0  0  0  0  0  0  0
   15.0994   12.0750   29.0995 H   0  0  0  0  0  0  0  0  0  0  0  0
   16.9944   12.3807   30.0908 C   0  0  0  0  0  0  0  0  0  0  0  0
   17.3967   13.0001   29.3061 H   0  0  0  0  0  0  0  0  0  0  0  0
   21.3973   12.7041   31.3639 C   0  0  0  0  0  0  0  0  0  0  0  0
   21.3479   13.9211   31.5691 O   0  0  0  0  0  0  0  0  0  0  0  0
   22.5770   12.0329   31.2748 N   0  0  0  0  0  0  0  0  0  0  0  0
   23.8341   12.7662   31.4708 C   0  0  0  0  0  0  0  0  0  0  0  0
   23.7431   13.8362   31.6532 H   0  0  0  0  0  0  0  0  0  0  0  0
   24.3498   12.3580   32.3452 H   0  0  0  0  0  0  0  0  0  0  0  0
   24.4867   12.6412   30.6024 H   0  0  0  0  0  0  0  0  0  0  0  0
   26.4347    9.8112   32.4311 C   0  0  0  0  0  0  0  0  0  0  0  0
   27.4285   10.2512   32.5637 H   0  0  0  0  0  0  0  0  0  0  0  0
   25.7836   10.6501   32.2048 H   0  0  0  0  0  0  0  0  0  0  0  0
   26.0978    9.3839   33.3829 H   0  0  0  0  0  0  0  0  0  0  0  0
   26.8684    9.2991   29.9468 C   0  0  0  0  0  0  0  0  0  0  0  0
   27.8620    9.7426   29.9801 H   0  0  0  0  0  0  0  0  0  0  0  0
   26.9059    8.5048   29.1981 H   0  0  0  0  0  0  0  0  0  0  0  0
   26.1836   10.0614   29.5905 H   0  0  0  0  0  0  0  0  0  0  0  0
  1  2  1  0
  2  3  1  0
  3  4  1  0
  3  5  1  0
  3  6  1  0
  6  7  1  0
  6 38  1  0
  6 42  1  0
  7  8  1  0
  7  9  1  0
  9 15  2  0
  9 10  1  0
 10 11  2  0
 11 33  1  0
 11 12  1  0
 12 13  2  0
 12 16  1  0
 13 14  1  0
 13 15  1  0
 16 17  1  0
 16 18  2  0
 18 19  1  0
 18 31  1  0
 19 20  1  0
 20 29  1  0
 20 21  2  0
 21 22  1  0
 21 23  1  0
 23 24  1  0
 23 25  2  0
 25 26  1  0
 25 27  1  0
 27 28  1  0
 27 29  2  0
 29 30  1  0
 31 32  2  0
 31 33  1  0
 33 34  1  0
 34 35  1  0
 34 36  1  0
 34 37  1  0
 38 39  1  0
 38 40  1  0
 38 41  1  0
 42 43  1  0
 42 44  1  0
 42 45  1  0
M  END
>  <s_m_source_file>  (1) 
ligprep_p38.smi

>  <i_m_source_file_index>  (1) 
27

>  <i_lp_mmshare_version>  (1) 
53161

>  <i_f3d_flags>  (1) 
0

>  <s_epik_input>  (1) 
W09IXVtDSDJdQyhbQ0gzXSkoW0NIM10pW05IXWMobjEpbltjSF1jKGMxMilbY0hdYyhjKD1PKW4yW0NIM10pT2MzYyhGKVtjSF1jKEYpW2NIXVtjSF0z

>  <s_epik_cmdline>  (1) 
J2VwaWtfcHl0aG9uJywgJy1waHQnLCAnMC4wJywgJy1waCcsICc3LjQnLCAnLXRuJywgJzgnLCAnLW1hJywgJzUwMCcsICctaW1hZScsICc8aW5maWxlLm1hZT4nLCAnLW9tYWUnLCAnPG91dGZpbGUubWFlPic=

>  <r_lp_tautomer_probability>  (1) 
1

>  <r_epik_Ionization_Penalty>  (1) 
  0.0000

>  <r_epik_Ionization_Penalty_Charging>  (1) 
  0.0000

>  <r_epik_Ionization_Penalty_Neutral>  (1) 
  0.0000

>  <r_epik_State_Penalty>  (1) 
 -0.0000

>  <r_epik_Charging_Adjusted_Penalty>  (1) 
1.02466e-06

>  <i_epik_Tot_Q>  (1) 
0

>  <i_epik_Tot_abs_Q>  (1) 
0

>  <s_epik_Chemistry_Notes>  (1) 
This compound has an imine and may undergo hydrolysis.

>  <s_lp_Force_Field>  (1) 
S-OPLS

>  <r_lp_Energy>  (1) 
52.9063

>  <b_lp_Chiralities_Consistent>  (1) 
1

>  <s_lp_Variant>  (1) 
lig_p38a_2z-1

>  <s_i_glide_gridfile>  (1) 
glide-grid_P38-3FLY

>  <i_i_glide_lignum>  (1) 
28

>  <i_i_glide_rotatable_bonds>  (1) 
6

>  <r_i_docking_score>  (1) 
-10.5947160759183

>  <r_i_glide_ligand_efficiency>  (1) 
-0.392396891700678

>  <r_i_glide_ligand_efficiency_sa>  (1) 
-1.17719067380876

>  <r_i_glide_ligand_efficiency_ln>  (1) 
-2.46627523492826

>  <r_i_glide_gscore>  (1) 
-10.5947160759183

>  <r_i_glide_lipo>  (1) 
-3.24534091619125

>  <r_i_glide_hbond>  (1) 
-1.16228518759134

>  <r_i_glide_metal>  (1) 
-0

>  <r_i_glide_rewards>  (1) 
-2.91944241060176

>  <r_i_glide_evdw>  (1) 
-43.2052688598633

>  <r_i_glide_ecoul>  (1) 
-12.8488531112671

>  <r_i_glide_erotb>  (1) 
0.81994384814927

>  <r_i_glide_esite>  (1) 
0

>  <r_i_glide_emodel>  (1) 
-89.9633956570994

>  <r_i_glide_energy>  (1) 
-56.0541219711304

>  <r_i_glide_einternal>  (1) 
0.34685879945755

>  <i_i_glide_confnum>  (1) 
3

>  <i_i_glide_posenum>  (1) 
14

>  <r_i_glide_eff_state_penalty>  (1) 
-0

>  <r_i_glide_rmsd>  (1) 
0.0932313431679471

>  <s_glide_core_constrain_type>  (1) 
snapped_core_restrain

$$$$
