lig_p38a_3fly
     RDKit          3D

 41 43  0  0  1  0  0  0  0  0999 V2000
   20.7920    7.8670   30.6766 H   0  0  0  0  0  0  0  0  0  0  0  0
   21.6587    8.4914   30.8206 C   0  0  0  0  0  0  0  0  0  0  0  0
   22.8582    7.8722   30.8317 N   0  0  0  0  0  0  0  0  0  0  0  0
   23.9192    8.6538   31.0209 C   0  0  0  0  0  0  0  0  0  0  0  0
   25.1411    8.0193   31.0656 N   0  0  0  0  0  0  0  0  0  0  0  0
   25.1474    7.0059   31.0295 H   0  0  0  0  0  0  0  0  0  0  0  0
   26.4164    8.7183   31.1848 C   0  0  0  0  0  0  0  0  0  0  0  0
   26.2922    9.5491   31.8776 H   0  0  0  0  0  0  0  0  0  0  0  0
   26.8684    9.2907   29.8329 C   0  0  0  0  0  0  0  0  0  0  0  0
   27.8177    9.8174   29.9317 H   0  0  0  0  0  0  0  0  0  0  0  0
   26.1444   10.0039   29.4349 H   0  0  0  0  0  0  0  0  0  0  0  0
   26.9962    8.4991   29.0931 H   0  0  0  0  0  0  0  0  0  0  0  0
   27.4720    7.7870   31.7786 C   0  0  0  0  0  0  0  0  0  0  0  0
   28.4203    8.3076   31.9116 H   0  0  0  0  0  0  0  0  0  0  0  0
   27.1555    7.4090   32.7519 H   0  0  0  0  0  0  0  0  0  0  0  0
   27.6421    6.9291   31.1282 H   0  0  0  0  0  0  0  0  0  0  0  0
   23.9043    9.9735   31.1946 N   0  0  0  0  0  0  0  0  0  0  0  0
   22.7202   10.6158   31.2095 C   0  0  0  0  0  0  0  0  0  0  0  0
   21.5317    9.8808   31.0233 C   0  0  0  0  0  0  0  0  0  0  0  0
   20.2571   10.5845   31.0702 C   0  0  0  0  0  0  0  0  0  0  0  0
   19.3627    9.9974   30.9180 H   0  0  0  0  0  0  0  0  0  0  0  0
   20.2159   11.9155   31.2987 C   0  0  0  0  0  0  0  0  0  0  0  0
   19.0567   12.6506   31.3554 O   0  0  0  0  0  0  0  0  0  0  0  0
   17.8145   12.0848   31.2508 C   0  0  0  0  0  0  0  0  0  0  0  0
   17.2676   11.3024   32.2899 C   0  0  0  0  0  0  0  0  0  0  0  0
   18.0041   11.0304   33.3915 F   0  0  0  0  0  0  0  0  0  0  0  0
   15.9472   10.8202   32.1844 C   0  0  0  0  0  0  0  0  0  0  0  0
   15.5280   10.2191   32.9759 H   0  0  0  0  0  0  0  0  0  0  0  0
   15.1842   11.1021   31.0353 C   0  0  0  0  0  0  0  0  0  0  0  0
   13.9295   10.6154   30.9086 F   0  0  0  0  0  0  0  0  0  0  0  0
   15.7269   11.8874   30.0041 C   0  0  0  0  0  0  0  0  0  0  0  0
   15.1342   12.1040   29.1301 H   0  0  0  0  0  0  0  0  0  0  0  0
   17.0335   12.3967   30.1195 C   0  0  0  0  0  0  0  0  0  0  0  0
   17.4375   13.0258   29.3407 H   0  0  0  0  0  0  0  0  0  0  0  0
   21.4446   12.6976   31.4710 C   0  0  0  0  0  0  0  0  0  0  0  0
   21.3885   13.9144   31.6492 O   0  0  0  0  0  0  0  0  0  0  0  0
   22.6327   12.0291   31.4243 N   0  0  0  0  0  0  0  0  0  0  0  0
   23.8985   12.7725   31.5838 C   0  0  0  0  0  0  0  0  0  0  0  0
   23.7860   13.8227   31.8564 H   0  0  0  0  0  0  0  0  0  0  0  0
   24.5181   12.3215   32.3606 H   0  0  0  0  0  0  0  0  0  0  0  0
   24.4692   12.7444   30.6542 H   0  0  0  0  0  0  0  0  0  0  0  0
  1  2  1  0
  2 19  2  0
  2  3  1  0
  3  4  2  0
  4  5  1  0
  4 17  1  0
  5  6  1  0
  5  7  1  0
  7  8  1  0
  7  9  1  0
  7 13  1  0
  9 10  1  0
  9 11  1  0
  9 12  1  0
 13 14  1  0
 13 15  1  0
 13 16  1  0
 17 18  2  0
 18 37  1  0
 18 19  1  0
 19 20  1  0
 20 21  1  0
 20 22  2  0
 22 23  1  0
 22 35  1  0
 23 24  1  0
 24 33  1  0
 24 25  2  0
 25 26  1  0
 25 27  1  0
 27 28  1  0
 27 29  2  0
 29 30  1  0
 29 31  1  0
 31 32  1  0
 31 33  2  0
 33 34  1  0
 35 36  2  0
 35 37  1  0
 37 38  1  0
 38 39  1  0
 38 40  1  0
 38 41  1  0
M  END
>  <s_m_source_file>  (1) 
ligprep_p38.smi

>  <i_m_source_file_index>  (1) 
31

>  <i_lp_mmshare_version>  (1) 
53161

>  <i_f3d_flags>  (1) 
0

>  <s_epik_input>  (1) 
W0NIM11bQ0hdKFtDSDNdKVtOSF1jKG4xKW5bY0hdYyhjMTIpW2NIXWMoYyg9TyluMltDSDNdKU9jM2MoRilbY0hdYyhGKVtjSF1bY0hdMw==

>  <s_epik_cmdline>  (1) 
J2VwaWtfcHl0aG9uJywgJy1waHQnLCAnMC4wJywgJy1waCcsICc3LjQnLCAnLXRuJywgJzgnLCAnLW1hJywgJzUwMCcsICctaW1hZScsICc8aW5maWxlLm1hZT4nLCAnLW9tYWUnLCAnPG91dGZpbGUubWFlPic=

>  <r_lp_tautomer_probability>  (1) 
1

>  <r_epik_Ionization_Penalty>  (1) 
  0.0000

>  <r_epik_Ionization_Penalty_Charging>  (1) 
  0.0000

>  <r_epik_Ionization_Penalty_Neutral>  (1) 
  0.0000

>  <r_epik_State_Penalty>  (1) 
 -0.0000

>  <r_epik_Charging_Adjusted_Penalty>  (1) 
4.83683e-07

>  <i_epik_Tot_Q>  (1) 
0

>  <i_epik_Tot_abs_Q>  (1) 
0

>  <s_epik_Chemistry_Notes>  (1) 
This compound has an imine and may undergo hydrolysis.

>  <s_lp_Force_Field>  (1) 
S-OPLS

>  <r_lp_Energy>  (1) 
48.3893

>  <b_lp_Chiralities_Consistent>  (1) 
1

>  <s_lp_Variant>  (1) 
lig_p38a_3fly-1

>  <s_i_glide_gridfile>  (1) 
glide-grid_P38-3FLY

>  <i_i_glide_lignum>  (1) 
32

>  <i_i_glide_rotatable_bonds>  (1) 
4

>  <r_i_docking_score>  (1) 
-10.739158836004

>  <r_i_glide_ligand_efficiency>  (1) 
-0.429566353440159

>  <r_i_glide_ligand_efficiency_sa>  (1) 
-1.25605963585074

>  <r_i_glide_ligand_efficiency_ln>  (1) 
-2.54550247075344

>  <r_i_glide_gscore>  (1) 
-10.739158836004

>  <r_i_glide_lipo>  (1) 
-3.25494379619664

>  <r_i_glide_hbond>  (1) 
-1.208732690298

>  <r_i_glide_metal>  (1) 
-0

>  <r_i_glide_rewards>  (1) 
-3.10852606456871

>  <r_i_glide_evdw>  (1) 
-41.866024017334

>  <r_i_glide_ecoul>  (1) 
-11.3842468261719

>  <r_i_glide_erotb>  (1) 
0.633981939851856

>  <r_i_glide_esite>  (1) 
0

>  <r_i_glide_emodel>  (1) 
-90.2843311855582

>  <r_i_glide_energy>  (1) 
-53.2502708435059

>  <r_i_glide_einternal>  (1) 
1.1392261356491e-08

>  <i_i_glide_confnum>  (1) 
1

>  <i_i_glide_posenum>  (1) 
1

>  <r_i_glide_eff_state_penalty>  (1) 
-0

>  <r_i_glide_rmsd>  (1) 
0.0499510384474305

>  <s_glide_core_constrain_type>  (1) 
snapped_core_restrain

$$$$
