lig_p38a_2p
     RDKit          3D

 58 61  0  0  1  0  0  0  0  0999 V2000
   20.7016    7.8437   30.7846 H   0  0  0  0  0  0  0  0  0  0  0  0
   21.5802    8.4622   30.8909 C   0  0  0  0  0  0  0  0  0  0  0  0
   22.7739    7.8326   30.9104 N   0  0  0  0  0  0  0  0  0  0  0  0
   23.8477    8.6012   31.0499 C   0  0  0  0  0  0  0  0  0  0  0  0
   25.0663    7.9529   31.1472 N   0  0  0  0  0  0  0  0  0  0  0  0
   25.0616    6.9394   31.1400 H   0  0  0  0  0  0  0  0  0  0  0  0
   26.3576    8.6353   31.2631 C   0  0  0  0  0  0  0  0  0  0  0  0
   26.3998    9.3658   30.4540 H   0  0  0  0  0  0  0  0  0  0  0  0
   26.5348    9.3678   32.6018 C   0  0  0  0  0  0  0  0  0  0  0  0
   27.4105   10.0117   32.5247 H   0  0  0  0  0  0  0  0  0  0  0  0
   25.6932   10.0229   32.8077 H   0  0  0  0  0  0  0  0  0  0  0  0
   26.7440    8.3965   33.7730 C   0  0  0  0  0  0  0  0  0  0  0  0
   26.8939    8.9398   34.7051 H   0  0  0  0  0  0  0  0  0  0  0  0
   25.8753    7.7515   33.9167 H   0  0  0  0  0  0  0  0  0  0  0  0
   27.9060    7.6282   33.5159 O   0  0  0  0  0  0  0  0  0  0  0  0
   27.7635    6.8135   32.3626 C   0  0  0  0  0  0  0  0  0  0  0  0
   28.6761    6.2362   32.2653 H   0  0  0  0  0  0  0  0  0  0  0  0
   26.9506    6.1111   32.5190 H   0  0  0  0  0  0  0  0  0  0  0  0
   27.5313    7.6641   31.0978 C   0  0  0  0  0  0  0  0  0  0  0  0
   27.3693    7.0336   30.2243 H   0  0  0  0  0  0  0  0  0  0  0  0
   28.4368    8.2393   30.9065 H   0  0  0  0  0  0  0  0  0  0  0  0
   23.8453    9.9250   31.1500 N   0  0  0  0  0  0  0  0  0  0  0  0
   22.6727   10.5896   31.1898 C   0  0  0  0  0  0  0  0  0  0  0  0
   21.4764    9.8591   31.0461 C   0  0  0  0  0  0  0  0  0  0  0  0
   20.2125   10.5774   31.0817 C   0  0  0  0  0  0  0  0  0  0  0  0
   19.3145    9.9959   30.9448 H   0  0  0  0  0  0  0  0  0  0  0  0
   20.1843   11.9140   31.2716 C   0  0  0  0  0  0  0  0  0  0  0  0
   19.0309   12.6624   31.2959 O   0  0  0  0  0  0  0  0  0  0  0  0
   17.7841   12.1048   31.2059 C   0  0  0  0  0  0  0  0  0  0  0  0
   17.2453   11.3214   32.2487 C   0  0  0  0  0  0  0  0  0  0  0  0
   17.9948   11.0326   33.3369 F   0  0  0  0  0  0  0  0  0  0  0  0
   15.9238   10.8442   32.1584 C   0  0  0  0  0  0  0  0  0  0  0  0
   15.5123   10.2404   32.9540 H   0  0  0  0  0  0  0  0  0  0  0  0
   15.1525   11.1261   31.0163 C   0  0  0  0  0  0  0  0  0  0  0  0
   13.9006   10.6341   30.9070 F   0  0  0  0  0  0  0  0  0  0  0  0
   15.6833   11.9167   29.9821 C   0  0  0  0  0  0  0  0  0  0  0  0
   15.0848   12.1361   29.1110 H   0  0  0  0  0  0  0  0  0  0  0  0
   16.9912   12.4213   30.0867 C   0  0  0  0  0  0  0  0  0  0  0  0
   17.3957   13.0414   29.2993 H   0  0  0  0  0  0  0  0  0  0  0  0
   21.4182   12.6893   31.4275 C   0  0  0  0  0  0  0  0  0  0  0  0
   21.3657   13.9113   31.5709 O   0  0  0  0  0  0  0  0  0  0  0  0
   22.6052   12.0128   31.3967 N   0  0  0  0  0  0  0  0  0  0  0  0
   23.8931   12.7536   31.4572 C   0  0  0  0  0  0  0  0  0  0  0  0
   24.7274   12.0723   31.6051 H   0  0  0  0  0  0  0  0  0  0  0  0
   24.0761   13.1922   30.4751 H   0  0  0  0  0  0  0  0  0  0  0  0
   24.0521   13.8368   32.5230 C   0  0  0  0  0  0  0  0  0  0  0  0
   23.7085   14.7807   32.1101 H   0  0  0  0  0  0  0  0  0  0  0  0
   23.3938   13.6574   33.3703 H   0  0  0  0  0  0  0  0  0  0  0  0
   25.5222   14.0308   32.9420 C   0  0  0  0  0  0  0  0  0  0  0  0
   26.2353   13.5770   32.2537 H   0  0  0  0  0  0  0  0  0  0  0  0
   25.7484   15.0976   32.9301 H   0  0  0  0  0  0  0  0  0  0  0  0
   25.8393   13.4628   34.6707 S   0  0  0  0  0  6  0  0  0  0  0  0
   26.6481   14.5133   35.3086 O   0  0  0  0  0  0  0  0  0  0  0  0
   24.5729   13.0357   35.2962 O   0  0  0  0  0  0  0  0  0  0  0  0
   26.9456   12.0292   34.4796 C   0  0  0  0  0  0  0  0  0  0  0  0
   27.6506   12.0131   35.3096 H   0  0  0  0  0  0  0  0  0  0  0  0
   26.3315   11.1395   34.5367 H   0  0  0  0  0  0  0  0  0  0  0  0
   27.4913   12.0889   33.5394 H   0  0  0  0  0  0  0  0  0  0  0  0
  1  2  1  0
  2 24  2  0
  2  3  1  0
  3  4  2  0
  4  5  1  0
  4 22  1  0
  5  6  1  0
  5  7  1  0
  7 19  1  0
  7  8  1  0
  7  9  1  0
  9 10  1  0
  9 11  1  0
  9 12  1  0
 12 13  1  0
 12 14  1  0
 12 15  1  0
 15 16  1  0
 16 17  1  0
 16 18  1  0
 16 19  1  0
 19 20  1  0
 19 21  1  0
 22 23  2  0
 23 42  1  0
 23 24  1  0
 24 25  1  0
 25 26  1  0
 25 27  2  0
 27 28  1  0
 27 40  1  0
 28 29  1  0
 29 38  1  0
 29 30  2  0
 30 31  1  0
 30 32  1  0
 32 33  1  0
 32 34  2  0
 34 35  1  0
 34 36  1  0
 36 37  1  0
 36 38  2  0
 38 39  1  0
 40 41  2  0
 40 42  1  0
 42 43  1  0
 43 44  1  0
 43 45  1  0
 43 46  1  0
 46 47  1  0
 46 48  1  0
 46 49  1  0
 49 50  1  0
 49 51  1  0
 49 52  1  0
 52 53  2  0
 52 54  2  0
 52 55  1  0
 55 56  1  0
 55 57  1  0
 55 58  1  0
M  END
>  <s_m_source_file>  (1) 
ligprep_p38.smi

>  <i_m_source_file_index>  (1) 
18

>  <i_lp_mmshare_version>  (1) 
53161

>  <i_f3d_flags>  (1) 
0

>  <s_epik_input>  (1) 
W0NIMl0xW0NIMl1PW0NIMl1bQ0gyXVtDSF0xW05IXWMobjIpbltjSF1jKGMyMylbY0hdYyhPYzRjKEYpW2NIXWMoRilbY0hdW2NIXTQpYyg9TyluM1tDSDJdW0NIMl1bQ0gyXVMoPU8pKD1PKVtDSDNd

>  <s_epik_cmdline>  (1) 
J2VwaWtfcHl0aG9uJywgJy1waHQnLCAnMC4wJywgJy1waCcsICc3LjQnLCAnLXRuJywgJzgnLCAnLW1hJywgJzUwMCcsICctaW1hZScsICc8aW5maWxlLm1hZT4nLCAnLW9tYWUnLCAnPG91dGZpbGUubWFlPic=

>  <r_lp_tautomer_probability>  (1) 
1

>  <r_epik_Ionization_Penalty>  (1) 
  0.0000

>  <r_epik_Ionization_Penalty_Charging>  (1) 
  0.0000

>  <r_epik_Ionization_Penalty_Neutral>  (1) 
  0.0000

>  <r_epik_State_Penalty>  (1) 
 -0.0000

>  <r_epik_Charging_Adjusted_Penalty>  (1) 
2.0251e-06

>  <i_epik_Tot_Q>  (1) 
0

>  <i_epik_Tot_abs_Q>  (1) 
0

>  <s_epik_Chemistry_Notes>  (1) 
This compound has an imine and may undergo hydrolysis.

>  <s_lp_Force_Field>  (1) 
S-OPLS

>  <r_lp_Energy>  (1) 
45.0597

>  <b_lp_Chiralities_Consistent>  (1) 
1

>  <s_lp_Variant>  (1) 
lig_p38a_2p-1

>  <s_i_glide_gridfile>  (1) 
glide-grid_P38-3FLY

>  <i_i_glide_lignum>  (1) 
19

>  <i_i_glide_rotatable_bonds>  (1) 
8

>  <r_i_docking_score>  (1) 
-10.3043593347642

>  <r_i_glide_ligand_efficiency>  (1) 
-0.303069392198948

>  <r_i_glide_ligand_efficiency_sa>  (1) 
-0.981827178419614

>  <r_i_glide_ligand_efficiency_ln>  (1) 
-2.27652200453875

>  <r_i_glide_gscore>  (1) 
-10.3043593347642

>  <r_i_glide_lipo>  (1) 
-3.0926618290496

>  <r_i_glide_hbond>  (1) 
-1.26014423960996

>  <r_i_glide_metal>  (1) 
-0

>  <r_i_glide_rewards>  (1) 
-2.14178359139858

>  <r_i_glide_evdw>  (1) 
-43.3538551330566

>  <r_i_glide_ecoul>  (1) 
-14.7593612670898

>  <r_i_glide_erotb>  (1) 
0.583345368240544

>  <r_i_glide_esite>  (1) 
-0.011518096230338

>  <r_i_glide_emodel>  (1) 
-86.3111648309419

>  <r_i_glide_energy>  (1) 
-58.1132164001465

>  <r_i_glide_einternal>  (1) 
14.9317560195923

>  <i_i_glide_confnum>  (1) 
67

>  <i_i_glide_posenum>  (1) 
25

>  <r_i_glide_eff_state_penalty>  (1) 
-0

>  <r_i_glide_rmsd>  (1) 
0.0960289739148157

>  <s_glide_core_constrain_type>  (1) 
snapped_core_restrain

$$$$
