lig_p38a_2j
     RDKit          3D

 48 51  0  0  1  0  0  0  0  0999 V2000
   20.8018    7.8140   30.8260 H   0  0  0  0  0  0  0  0  0  0  0  0
   21.6713    8.4476   30.9021 C   0  0  0  0  0  0  0  0  0  0  0  0
   22.8800    7.8438   30.9185 N   0  0  0  0  0  0  0  0  0  0  0  0
   23.9341    8.6478   31.0394 C   0  0  0  0  0  0  0  0  0  0  0  0
   25.1577    8.0249   31.1854 N   0  0  0  0  0  0  0  0  0  0  0  0
   25.1613    7.0124   31.2015 H   0  0  0  0  0  0  0  0  0  0  0  0
   26.4447    8.7107   31.3199 C   0  0  0  0  0  0  0  0  0  0  0  0
   26.5255    9.3949   30.4744 H   0  0  0  0  0  0  0  0  0  0  0  0
   26.5919    9.5182   32.6324 C   0  0  0  0  0  0  0  0  0  0  0  0
   27.4774   10.1498   32.5546 H   0  0  0  0  0  0  0  0  0  0  0  0
   25.7629   10.2035   32.7960 H   0  0  0  0  0  0  0  0  0  0  0  0
   26.7555    8.6047   33.8564 C   0  0  0  0  0  0  0  0  0  0  0  0
   26.9085    9.2056   34.7529 H   0  0  0  0  0  0  0  0  0  0  0  0
   25.8599    8.0040   34.0237 H   0  0  0  0  0  0  0  0  0  0  0  0
   27.8891    7.7671   33.6719 O   0  0  0  0  0  0  0  0  0  0  0  0
   27.7511    6.8953   32.5566 C   0  0  0  0  0  0  0  0  0  0  0  0
   28.6304    6.2551   32.5138 H   0  0  0  0  0  0  0  0  0  0  0  0
   26.8964    6.2397   32.7139 H   0  0  0  0  0  0  0  0  0  0  0  0
   27.6071    7.7063   31.2516 C   0  0  0  0  0  0  0  0  0  0  0  0
   27.4782    7.0362   30.4023 H   0  0  0  0  0  0  0  0  0  0  0  0
   28.5352    8.2513   31.0789 H   0  0  0  0  0  0  0  0  0  0  0  0
   23.9054    9.9775   31.1038 N   0  0  0  0  0  0  0  0  0  0  0  0
   22.7105   10.6031   31.1481 C   0  0  0  0  0  0  0  0  0  0  0  0
   21.5335    9.8433   31.0394 C   0  0  0  0  0  0  0  0  0  0  0  0
   20.2555   10.5334   31.1267 C   0  0  0  0  0  0  0  0  0  0  0  0
   19.3586    9.9435   31.0002 H   0  0  0  0  0  0  0  0  0  0  0  0
   20.1777   11.8569   31.3610 C   0  0  0  0  0  0  0  0  0  0  0  0
   18.8105   12.5177   31.4273 C   0  0  0  0  0  0  0  0  0  0  0  0
   18.8601   13.3814   32.0905 H   0  0  0  0  0  0  0  0  0  0  0  0
   18.1058   11.8238   31.8891 H   0  0  0  0  0  0  0  0  0  0  0  0
   18.2495   12.9462   30.0777 C   0  0  0  0  0  0  0  0  0  0  0  0
   19.0798   13.0334   28.9383 C   0  0  0  0  0  0  0  0  0  0  0  0
   20.1139   12.7267   28.9562 H   0  0  0  0  0  0  0  0  0  0  0  0
   18.5478   13.4365   27.7108 C   0  0  0  0  0  0  0  0  0  0  0  0
   19.1847   13.4490   26.8429 H   0  0  0  0  0  0  0  0  0  0  0  0
   17.2920   14.0397   27.6552 C   0  0  0  0  0  0  0  0  0  0  0  0
   16.8648   14.6346   26.5146 F   0  0  0  0  0  0  0  0  0  0  0  0
   16.4870   14.0150   28.7949 C   0  0  0  0  0  0  0  0  0  0  0  0
   15.5284   14.4830   28.7414 H   0  0  0  0  0  0  0  0  0  0  0  0
   16.9069   13.3562   29.9597 C   0  0  0  0  0  0  0  0  0  0  0  0
   16.0265   13.1697   30.9686 F   0  0  0  0  0  0  0  0  0  0  0  0
   21.4019   12.6662   31.4946 C   0  0  0  0  0  0  0  0  0  0  0  0
   21.3478   13.8774   31.7080 O   0  0  0  0  0  0  0  0  0  0  0  0
   22.5974   12.0170   31.3555 N   0  0  0  0  0  0  0  0  0  0  0  0
   23.8576   12.7724   31.4554 C   0  0  0  0  0  0  0  0  0  0  0  0
   24.4764   12.3649   32.2552 H   0  0  0  0  0  0  0  0  0  0  0  0
   24.4203   12.6850   30.5251 H   0  0  0  0  0  0  0  0  0  0  0  0
   23.7487   13.8360   31.6639 H   0  0  0  0  0  0  0  0  0  0  0  0
  1  2  1  0
  2 24  2  0
  2  3  1  0
  3  4  2  0
  4  5  1  0
  4 22  1  0
  5  6  1  0
  5  7  1  0
  7 19  1  0
  7  8  1  0
  7  9  1  0
  9 10  1  0
  9 11  1  0
  9 12  1  0
 12 13  1  0
 12 14  1  0
 12 15  1  0
 15 16  1  0
 16 17  1  0
 16 18  1  0
 16 19  1  0
 19 20  1  0
 19 21  1  0
 22 23  2  0
 23 44  1  0
 23 24  1  0
 24 25  1  0
 25 26  1  0
 25 27  2  0
 27 28  1  0
 27 42  1  0
 28 29  1  0
 28 30  1  0
 28 31  1  0
 31 40  1  0
 31 32  2  0
 32 33  1  0
 32 34  1  0
 34 35  1  0
 34 36  2  0
 36 37  1  0
 36 38  1  0
 38 39  1  0
 38 40  2  0
 40 41  1  0
 42 43  2  0
 42 44  1  0
 44 45  1  0
 45 46  1  0
 45 47  1  0
 45 48  1  0
M  END
>  <s_m_source_file>  (1) 
ligprep_p38.smi

>  <i_m_source_file_index>  (1) 
12

>  <i_lp_mmshare_version>  (1) 
53161

>  <i_f3d_flags>  (1) 
0

>  <s_epik_input>  (1) 
W0NIMl0xW0NIMl1PW0NIMl1bQ0gyXVtDSF0xW05IXWMobjIpbltjSF1jKGMyMylbY0hdYyhjKD1PKW4zW0NIM10pW0NIMl1jNFtjSF1bY0hdYyhGKVtjSF1jNEY=

>  <s_epik_cmdline>  (1) 
J2VwaWtfcHl0aG9uJywgJy1waHQnLCAnMC4wJywgJy1waCcsICc3LjQnLCAnLXRuJywgJzgnLCAnLW1hJywgJzUwMCcsICctaW1hZScsICc8aW5maWxlLm1hZT4nLCAnLW9tYWUnLCAnPG91dGZpbGUubWFlPic=

>  <r_lp_tautomer_probability>  (1) 
1

>  <r_epik_Ionization_Penalty>  (1) 
  0.0000

>  <r_epik_Ionization_Penalty_Charging>  (1) 
  0.0000

>  <r_epik_Ionization_Penalty_Neutral>  (1) 
  0.0000

>  <r_epik_State_Penalty>  (1) 
 -0.0000

>  <r_epik_Charging_Adjusted_Penalty>  (1) 
1.24485e-06

>  <i_epik_Tot_Q>  (1) 
0

>  <i_epik_Tot_abs_Q>  (1) 
0

>  <s_epik_Chemistry_Notes>  (1) 
This compound has an imine and may undergo hydrolysis.

>  <s_lp_Force_Field>  (1) 
S-OPLS

>  <r_lp_Energy>  (1) 
41.0767

>  <b_lp_Chiralities_Consistent>  (1) 
1

>  <s_lp_Variant>  (1) 
lig_p38a_2j-1

>  <s_i_glide_gridfile>  (1) 
glide-grid_P38-3FLY

>  <i_i_glide_lignum>  (1) 
13

>  <i_i_glide_rotatable_bonds>  (1) 
4

>  <r_i_docking_score>  (1) 
-7.72186623852722

>  <r_i_glide_ligand_efficiency>  (1) 
-0.275780937090258

>  <r_i_glide_ligand_efficiency_sa>  (1) 
-0.837433351291647

>  <r_i_glide_ligand_efficiency_ln>  (1) 
-1.78243345169661

>  <r_i_glide_gscore>  (1) 
-7.72186623852722

>  <r_i_glide_lipo>  (1) 
-1.67711506881418

>  <r_i_glide_hbond>  (1) 
-1.15140735713775

>  <r_i_glide_metal>  (1) 
-0

>  <r_i_glide_rewards>  (1) 
-2.48665431701092

>  <r_i_glide_evdw>  (1) 
-26.1093330383301

>  <r_i_glide_ecoul>  (1) 
-10.6655569076538

>  <r_i_glide_erotb>  (1) 
0.521440861210304

>  <r_i_glide_esite>  (1) 
-0.0228301687101092

>  <r_i_glide_emodel>  (1) 
-42.9936669396305

>  <r_i_glide_energy>  (1) 
-36.7748899459839

>  <r_i_glide_einternal>  (1) 
7.62915897369385

>  <i_i_glide_confnum>  (1) 
20

>  <i_i_glide_posenum>  (1) 
12

>  <r_i_glide_eff_state_penalty>  (1) 
-0

>  <r_i_glide_rmsd>  (1) 
0.0999654357620762

>  <s_glide_core_constrain_type>  (1) 
snapped_core_restrain

$$$$
