lig_p38a_2r
     RDKit          3D

 56 59  0  0  1  0  0  0  0  0999 V2000
   24.8525   14.5974   33.5581 H   0  0  0  0  0  0  0  0  0  0  0  0
   25.3478   13.8362   33.2674 O   0  0  0  0  0  0  0  0  0  0  0  0
   24.4613   12.7441   33.1375 C   0  0  0  0  0  0  0  0  0  0  0  0
   25.3153   11.5223   33.5003 C   0  0  0  0  0  0  0  0  0  0  0  0
   24.7410   10.5983   33.4718 H   0  0  0  0  0  0  0  0  0  0  0  0
   26.1646   11.4354   32.8233 H   0  0  0  0  0  0  0  0  0  0  0  0
   25.7200   11.6082   34.5092 H   0  0  0  0  0  0  0  0  0  0  0  0
   23.3682   12.9402   34.1998 C   0  0  0  0  0  0  0  0  0  0  0  0
   22.6949   12.0838   34.2238 H   0  0  0  0  0  0  0  0  0  0  0  0
   23.7967   13.0403   35.1988 H   0  0  0  0  0  0  0  0  0  0  0  0
   22.7789   13.8359   34.0102 H   0  0  0  0  0  0  0  0  0  0  0  0
   23.9386   12.7402   31.6614 C   0  0  0  0  0  0  0  0  0  0  0  0
   24.7171   12.3556   31.0010 H   0  0  0  0  0  0  0  0  0  0  0  0
   23.8364   13.7729   31.3256 H   0  0  0  0  0  0  0  0  0  0  0  0
   22.6615   12.0113   31.4291 N   0  0  0  0  0  0  0  0  0  0  0  0
   21.4806   12.6963   31.4831 C   0  0  0  0  0  0  0  0  0  0  0  0
   21.4422   13.9082   31.7002 O   0  0  0  0  0  0  0  0  0  0  0  0
   20.2389   11.9394   31.2889 C   0  0  0  0  0  0  0  0  0  0  0  0
   19.0897   12.6950   31.3351 O   0  0  0  0  0  0  0  0  0  0  0  0
   17.8383   12.1473   31.2256 C   0  0  0  0  0  0  0  0  0  0  0  0
   17.2884   11.3443   32.2473 C   0  0  0  0  0  0  0  0  0  0  0  0
   18.0284   11.0356   33.3367 F   0  0  0  0  0  0  0  0  0  0  0  0
   15.9698   10.8623   32.1324 C   0  0  0  0  0  0  0  0  0  0  0  0
   15.5549   10.2362   32.9090 H   0  0  0  0  0  0  0  0  0  0  0  0
   15.2127   11.1552   30.9824 C   0  0  0  0  0  0  0  0  0  0  0  0
   13.9746   10.6362   30.8350 F   0  0  0  0  0  0  0  0  0  0  0  0
   15.7483   11.9772   29.9749 C   0  0  0  0  0  0  0  0  0  0  0  0
   15.1615   12.2097   29.0982 H   0  0  0  0  0  0  0  0  0  0  0  0
   17.0532   12.4872   30.1075 C   0  0  0  0  0  0  0  0  0  0  0  0
   17.4637   13.1233   29.3359 H   0  0  0  0  0  0  0  0  0  0  0  0
   20.2575   10.6074   31.0643 C   0  0  0  0  0  0  0  0  0  0  0  0
   19.3536   10.0382   30.9039 H   0  0  0  0  0  0  0  0  0  0  0  0
   21.5190    9.8816   31.0143 C   0  0  0  0  0  0  0  0  0  0  0  0
   22.7208   10.6052   31.1583 C   0  0  0  0  0  0  0  0  0  0  0  0
   23.8921    9.9492   31.0885 N   0  0  0  0  0  0  0  0  0  0  0  0
   23.8794    8.6172   31.0171 C   0  0  0  0  0  0  0  0  0  0  0  0
   25.0845    7.9576   31.1621 N   0  0  0  0  0  0  0  0  0  0  0  0
   25.0777    6.9440   31.1787 H   0  0  0  0  0  0  0  0  0  0  0  0
   26.3597    8.6511   31.2805 C   0  0  0  0  0  0  0  0  0  0  0  0
   26.1989    9.5762   31.8231 H   0  0  0  0  0  0  0  0  0  0  0  0
   27.3818    7.8441   32.0878 C   0  0  0  0  0  0  0  0  0  0  0  0
   26.9875    7.6031   33.0760 H   0  0  0  0  0  0  0  0  0  0  0  0
   27.6024    6.8971   31.5929 H   0  0  0  0  0  0  0  0  0  0  0  0
   28.6608    8.6807   32.2256 C   0  0  0  0  0  0  0  0  0  0  0  0
   28.4742    9.5818   32.8119 H   0  0  0  0  0  0  0  0  0  0  0  0
   29.4348    8.1147   32.7433 H   0  0  0  0  0  0  0  0  0  0  0  0
   29.1285    9.0362   30.9324 O   0  0  0  0  0  0  0  0  0  0  0  0
   28.1820    9.7569   30.1521 C   0  0  0  0  0  0  0  0  0  0  0  0
   28.0014   10.7536   30.5579 H   0  0  0  0  0  0  0  0  0  0  0  0
   28.5478    9.8362   29.1591 H   0  0  0  0  0  0  0  0  0  0  0  0
   26.9081    8.9797   29.9224 C   0  0  0  0  0  0  0  0  0  0  0  0
   27.1060    8.0690   29.3543 H   0  0  0  0  0  0  0  0  0  0  0  0
   26.2037    9.5781   29.3435 H   0  0  0  0  0  0  0  0  0  0  0  0
   22.8041    7.8438   30.8981 N   0  0  0  0  0  0  0  0  0  0  0  0
   21.6149    8.4822   30.8645 C   0  0  0  0  0  0  0  0  0  0  0  0
   20.7327    7.8674   30.7674 H   0  0  0  0  0  0  0  0  0  0  0  0
  1  2  1  0
  2  3  1  0
  3  4  1  0
  3  8  1  0
  3 12  1  0
  4  5  1  0
  4  6  1  0
  4  7  1  0
  8  9  1  0
  8 10  1  0
  8 11  1  0
 12 13  1  0
 12 14  1  0
 12 15  1  0
 15 34  1  0
 15 16  1  0
 16 17  2  0
 16 18  1  0
 18 19  1  0
 18 31  2  0
 19 20  1  0
 20 29  1  0
 20 21  2  0
 21 22  1  0
 21 23  1  0
 23 24  1  0
 23 25  2  0
 25 26  1  0
 25 27  1  0
 27 28  1  0
 27 29  2  0
 29 30  1  0
 31 32  1  0
 31 33  1  0
 33 55  1  0
 33 34  2  0
 34 35  1  0
 35 36  2  0
 36 37  1  0
 36 54  1  0
 37 38  1  0
 37 39  1  0
 39 51  1  0
 39 40  1  0
 39 41  1  0
 41 42  1  0
 41 43  1  0
 41 44  1  0
 44 45  1  0
 44 46  1  0
 44 47  1  0
 47 48  1  0
 48 49  1  0
 48 50  1  0
 48 51  1  0
 51 52  1  0
 51 53  1  0
 54 55  2  0
 55 56  1  0
M  END
>  <s_m_source_file>  (1) 
ligprep_p38.smi

>  <i_m_source_file_index>  (1) 
20

>  <i_lp_mmshare_version>  (1) 
53161

>  <i_f3d_flags>  (1) 
0

>  <s_epik_input>  (1) 
W2NIXTFbY0hdYyhGKVtjSF1jKEYpYzFPYyhbY0hdMiljKD1PKW4oW0NIMl1DKFtPSF0pKFtDSDNdKVtDSDNdKWMoYzIzKW5jKG5bY0hdMylbTkhdW0NIXTRbQ0gyXVtDSDJdT1tDSDJdW0NIMl00

>  <s_epik_cmdline>  (1) 
J2VwaWtfcHl0aG9uJywgJy1waHQnLCAnMC4wJywgJy1waCcsICc3LjQnLCAnLXRuJywgJzgnLCAnLW1hJywgJzUwMCcsICctaW1hZScsICc8aW5maWxlLm1hZT4nLCAnLW9tYWUnLCAnPG91dGZpbGUubWFlPic=

>  <r_lp_tautomer_probability>  (1) 
1

>  <r_epik_Ionization_Penalty>  (1) 
  0.0000

>  <r_epik_Ionization_Penalty_Charging>  (1) 
  0.0000

>  <r_epik_Ionization_Penalty_Neutral>  (1) 
  0.0000

>  <r_epik_State_Penalty>  (1) 
 -0.0000

>  <r_epik_Charging_Adjusted_Penalty>  (1) 
1.22126e-06

>  <i_epik_Tot_Q>  (1) 
0

>  <i_epik_Tot_abs_Q>  (1) 
0

>  <s_epik_Chemistry_Notes>  (1) 
This compound has an imine and may undergo hydrolysis.

>  <s_lp_Force_Field>  (1) 
S-OPLS

>  <r_lp_Energy>  (1) 
52.2242

>  <b_lp_Chiralities_Consistent>  (1) 
1

>  <s_lp_Variant>  (1) 
lig_p38a_2r-1

>  <s_i_glide_gridfile>  (1) 
glide-grid_P38-3FLY

>  <i_i_glide_lignum>  (1) 
21

>  <i_i_glide_rotatable_bonds>  (1) 
7

>  <r_i_docking_score>  (1) 
-11.5653031248753

>  <r_i_glide_ligand_efficiency>  (1) 
-0.361415722652353

>  <r_i_glide_ligand_efficiency_sa>  (1) 
-1.14742339534683

>  <r_i_glide_ligand_efficiency_ln>  (1) 
-2.58978662791604

>  <r_i_glide_gscore>  (1) 
-11.5653031248753

>  <r_i_glide_lipo>  (1) 
-3.64144555231492

>  <r_i_glide_hbond>  (1) 
-1.57522783344839

>  <r_i_glide_metal>  (1) 
-0

>  <r_i_glide_rewards>  (1) 
-2.46900698530241

>  <r_i_glide_evdw>  (1) 
-44.5862236022949

>  <r_i_glide_ecoul>  (1) 
-15.0191326141357

>  <r_i_glide_erotb>  (1) 
0.602558318425538

>  <r_i_glide_esite>  (1) 
0

>  <r_i_glide_emodel>  (1) 
-67.304682117927

>  <r_i_glide_energy>  (1) 
-59.6053562164307

>  <r_i_glide_einternal>  (1) 
1.67123031616211

>  <i_i_glide_confnum>  (1) 
1

>  <i_i_glide_posenum>  (1) 
8

>  <r_i_glide_eff_state_penalty>  (1) 
-0

>  <r_i_glide_rmsd>  (1) 
0.0922288594151514

>  <s_glide_core_constrain_type>  (1) 
snapped_core_restrain

$$$$
