lig_p38a_2ee
     RDKit          3D

 52 55  0  0  1  0  0  0  0  0999 V2000
   20.7909    7.8361   30.7857 H   0  0  0  0  0  0  0  0  0  0  0  0
   21.6581    8.4812   30.8763 C   0  0  0  0  0  0  0  0  0  0  0  0
   22.8654    7.8668   30.9099 N   0  0  0  0  0  0  0  0  0  0  0  0
   23.9200    8.6775   31.0279 C   0  0  0  0  0  0  0  0  0  0  0  0
   25.1477    8.0602   31.1564 N   0  0  0  0  0  0  0  0  0  0  0  0
   25.1499    7.0500   31.1794 H   0  0  0  0  0  0  0  0  0  0  0  0
   26.4304    8.7317   31.3194 C   0  0  0  0  0  0  0  0  0  0  0  0
   26.5641    9.4029   30.4643 H   0  0  0  0  0  0  0  0  0  0  0  0
   26.5275    9.5591   32.6321 C   0  0  0  0  0  0  0  0  0  0  0  0
   25.7245   10.2947   32.7128 H   0  0  0  0  0  0  0  0  0  0  0  0
   27.4431   10.1598   32.6065 H   0  0  0  0  0  0  0  0  0  0  0  0
   26.5436    8.6599   33.8813 C   0  0  0  0  0  0  0  0  0  0  0  0
   25.6055    8.1172   33.9473 H   0  0  0  0  0  0  0  0  0  0  0  0
   26.5899    9.2934   34.7636 H   0  0  0  0  0  0  0  0  0  0  0  0
   27.6660    7.7243   33.7814 N   0  0  0  0  0  0  0  0  0  0  0  0
   28.6251    7.6391   34.7366 C   0  0  0  0  0  0  0  0  0  0  0  0
   28.6260    8.3449   35.7490 O   0  0  0  0  0  0  0  0  0  0  0  0
   29.7625    6.6252   34.5794 C   0  0  0  0  0  0  0  0  0  0  0  0
   29.3788    5.6088   34.5636 H   0  0  0  0  0  0  0  0  0  0  0  0
   30.4632    6.6959   35.4128 H   0  0  0  0  0  0  0  0  0  0  0  0
   30.3215    6.8097   33.6626 H   0  0  0  0  0  0  0  0  0  0  0  0
   27.5829    6.8543   32.6079 C   0  0  0  0  0  0  0  0  0  0  0  0
   28.3811    6.1146   32.5505 H   0  0  0  0  0  0  0  0  0  0  0  0
   26.6611    6.2774   32.6960 H   0  0  0  0  0  0  0  0  0  0  0  0
   27.5655    7.6861   31.3057 C   0  0  0  0  0  0  0  0  0  0  0  0
   28.5300    8.1909   31.1918 H   0  0  0  0  0  0  0  0  0  0  0  0
   27.4544    7.0355   30.4388 H   0  0  0  0  0  0  0  0  0  0  0  0
   23.9059   10.0096   31.0831 N   0  0  0  0  0  0  0  0  0  0  0  0
   22.6989   10.6301   31.1124 C   0  0  0  0  0  0  0  0  0  0  0  0
   21.5125    9.8758   31.0039 C   0  0  0  0  0  0  0  0  0  0  0  0
   20.2366   10.5741   31.0779 C   0  0  0  0  0  0  0  0  0  0  0  0
   19.3390    9.9792   30.9876 H   0  0  0  0  0  0  0  0  0  0  0  0
   20.1980   11.9117   31.2737 C   0  0  0  0  0  0  0  0  0  0  0  0
   19.0321   12.6461   31.3698 O   0  0  0  0  0  0  0  0  0  0  0  0
   17.7950   12.0758   31.2433 C   0  0  0  0  0  0  0  0  0  0  0  0
   17.2268   11.3090   32.2817 C   0  0  0  0  0  0  0  0  0  0  0  0
   17.9499   11.0241   33.3869 F   0  0  0  0  0  0  0  0  0  0  0  0
   15.8982   10.8351   32.1620 C   0  0  0  0  0  0  0  0  0  0  0  0
   15.4725   10.2315   32.9496 H   0  0  0  0  0  0  0  0  0  0  0  0
   15.1583   11.1203   31.0058 C   0  0  0  0  0  0  0  0  0  0  0  0
   13.9071   10.6304   30.8747 F   0  0  0  0  0  0  0  0  0  0  0  0
   15.7200   11.8934   29.9757 C   0  0  0  0  0  0  0  0  0  0  0  0
   15.1462   12.1196   29.0916 H   0  0  0  0  0  0  0  0  0  0  0  0
   17.0275   12.3905   30.1090 C   0  0  0  0  0  0  0  0  0  0  0  0
   17.4574   13.0044   29.3226 H   0  0  0  0  0  0  0  0  0  0  0  0
   21.4196   12.7143   31.3771 C   0  0  0  0  0  0  0  0  0  0  0  0
   21.3612   13.9265   31.5650 O   0  0  0  0  0  0  0  0  0  0  0  0
   22.6066   12.0423   31.3003 N   0  0  0  0  0  0  0  0  0  0  0  0
   23.8726   12.7812   31.4514 C   0  0  0  0  0  0  0  0  0  0  0  0
   23.7747   13.8362   31.6856 H   0  0  0  0  0  0  0  0  0  0  0  0
   24.4533   12.3399   32.2642 H   0  0  0  0  0  0  0  0  0  0  0  0
   24.4617   12.7012   30.5436 H   0  0  0  0  0  0  0  0  0  0  0  0
  1  2  1  0
  2 30  2  0
  2  3  1  0
  3  4  2  0
  4  5  1  0
  4 28  1  0
  5  6  1  0
  5  7  1  0
  7 25  1  0
  7  8  1  0
  7  9  1  0
  9 10  1  0
  9 11  1  0
  9 12  1  0
 12 13  1  0
 12 14  1  0
 12 15  1  0
 15 16  1  0
 15 22  1  0
 16 17  2  0
 16 18  1  0
 18 19  1  0
 18 20  1  0
 18 21  1  0
 22 23  1  0
 22 24  1  0
 22 25  1  0
 25 26  1  0
 25 27  1  0
 28 29  2  0
 29 48  1  0
 29 30  1  0
 30 31  1  0
 31 32  1  0
 31 33  2  0
 33 34  1  0
 33 46  1  0
 34 35  1  0
 35 44  1  0
 35 36  2  0
 36 37  1  0
 36 38  1  0
 38 39  1  0
 38 40  2  0
 40 41  1  0
 40 42  1  0
 42 43  1  0
 42 44  2  0
 44 45  1  0
 46 47  2  0
 46 48  1  0
 48 49  1  0
 49 50  1  0
 49 51  1  0
 49 52  1  0
M  END
>  <s_m_source_file>  (1) 
ligprep_p38.smi

>  <i_m_source_file_index>  (1) 
5

>  <i_lp_mmshare_version>  (1) 
53161

>  <i_f3d_flags>  (1) 
0

>  <s_epik_input>  (1) 
Tz1DKFtDSDNdKU4oW0NIMl1bQ0gyXTEpW0NIMl1bQ0gyXVtDSF0xW05IXWMobjIpbltjSF1jKGMyMylbY0hdYyhjKD1PKW4zW0NIM10pT2M0YyhGKVtjSF1jKEYpW2NIXVtjSF00

>  <s_epik_cmdline>  (1) 
J2VwaWtfcHl0aG9uJywgJy1waHQnLCAnMC4wJywgJy1waCcsICc3LjQnLCAnLXRuJywgJzgnLCAnLW1hJywgJzUwMCcsICctaW1hZScsICc8aW5maWxlLm1hZT4nLCAnLW9tYWUnLCAnPG91dGZpbGUubWFlPic=

>  <r_lp_tautomer_probability>  (1) 
1

>  <r_epik_Ionization_Penalty>  (1) 
  0.0000

>  <r_epik_Ionization_Penalty_Charging>  (1) 
  0.0000

>  <r_epik_Ionization_Penalty_Neutral>  (1) 
  0.0000

>  <r_epik_State_Penalty>  (1) 
 -0.0000

>  <r_epik_Charging_Adjusted_Penalty>  (1) 
1.71056e-06

>  <i_epik_Tot_Q>  (1) 
0

>  <i_epik_Tot_abs_Q>  (1) 
0

>  <s_epik_Chemistry_Notes>  (1) 
This compound has an imine and may undergo hydrolysis.

>  <s_lp_Force_Field>  (1) 
S-OPLS

>  <r_lp_Energy>  (1) 
50.2649

>  <b_lp_Chiralities_Consistent>  (1) 
1

>  <s_lp_Variant>  (1) 
lig_p38a_2ee-1

>  <s_i_glide_gridfile>  (1) 
glide-grid_P38-3FLY

>  <i_i_glide_lignum>  (1) 
5

>  <i_i_glide_rotatable_bonds>  (1) 
5

>  <r_i_docking_score>  (1) 
-10.6010882438213

>  <r_i_glide_ligand_efficiency>  (1) 
-0.341970588510363

>  <r_i_glide_ligand_efficiency_sa>  (1) 
-1.07425978920369

>  <r_i_glide_ligand_efficiency_ln>  (1) 
-2.39087028331923

>  <r_i_glide_gscore>  (1) 
-10.6010882438213

>  <r_i_glide_lipo>  (1) 
-3.08921707523415

>  <r_i_glide_hbond>  (1) 
-1.18638270746514

>  <r_i_glide_metal>  (1) 
-0

>  <r_i_glide_rewards>  (1) 
-2.63006652446578

>  <r_i_glide_evdw>  (1) 
-45.0501480102539

>  <r_i_glide_ecoul>  (1) 
-12.4932022094727

>  <r_i_glide_erotb>  (1) 
0.431065795277422

>  <r_i_glide_esite>  (1) 
0

>  <r_i_glide_emodel>  (1) 
-91.0572380707273

>  <r_i_glide_energy>  (1) 
-57.5433502197266

>  <r_i_glide_einternal>  (1) 
4.43986082077026

>  <i_i_glide_confnum>  (1) 
5

>  <i_i_glide_posenum>  (1) 
1

>  <r_i_glide_eff_state_penalty>  (1) 
-0

>  <r_i_glide_rmsd>  (1) 
0.0849413683094191

>  <s_glide_core_constrain_type>  (1) 
snapped_core_restrain

$$$$
